
 *** CALCULATION TRACE ***


<set objective = None>
<reset scope>
<reset scope>
<reset scope>
<reset scope>
<reset scope>
<reset scope>
<reset scope>
<reset scope>
<reset scope>
<reset scope>
<reset scope>
<reset scope>
<reset scope>
<reset scope>
<reset scope>
<reset scope>
<reset scope>


*** INPUT SPECIFICATION MESSAGES ***

 BLOCK        B11      IS NEW 10/30/2024   18:30:23:99 
 BLOCK B11 SEP
     PARAM
     MASS-FLOW STREAM=S1 SUBSTREAM=MIXED COMPS=H2SO4 FLOWS= &
         8143.69

 FLOWSHEET    IS  NEW 10/30/2024   18:30:23:99 
 FLOWSHEET
     BLOCK REACTOR1 IN=3 AIR OUT=4
     BLOCK B2 IN=SULPHUR OUT=3
     BLOCK B4 IN=4 OUT=5
     BLOCK B5 IN=5 OUT=8
     BLOCK B6 IN=9 OUT=10
     BLOCK B7 IN=11 OUT=13
     BLOCK B9 IN=8 OUT=9
     BLOCK B10 IN=10 OUT=11
     BLOCK B12 IN=13 OUT=14
     BLOCK B3 IN=WATER 14 OUT=H2S04OUT
     BLOCK B8 IN=H2S04OUT OUT=FINAL
     BLOCK B11 IN=FINAL OUT=S1 S2

 PDF updated                                                                      TIME =   1073.26
 THIS COPY OF ASPEN PLUS LICENSED TO INDIAN INSTITUTE OF TECH        
 
 
 *** FLOWSHEET ANALYSIS MESSAGES ***

 FLOWSHEET CONNECTIVITY BY STREAMS       

   STREAM     SOURCE     DEST           STREAM     SOURCE     DEST
   AIR        ----       REACTOR1       SULPHUR    ----       B2      
   WATER      ----       B3             4          REACTOR1   B4      
   3          B2         REACTOR1       5          B4         B5      
   8          B5         B9             10         B6         B10     
   13         B7         B12            9          B9         B6      
   11         B10        B7             14         B12        B3      
   H2S04OUT   B3         B8             FINAL      B8         B11     
   S1         B11        ----           S2         B11        ----    

 FLOWSHEET CONNECTIVITY BY BLOCKS        

   BLOCK        INLETS                         OUTLETS
   REACTOR1     3 AIR                          4                           
   B2           SULPHUR                        3                           
   B4           4                              5                           
   B5           5                              8                           
   B6           9                              10                          
   B7           11                             13                          
   B9           8                              9                           
   B10          10                             11                          
   B12          13                             14                          
   B3           WATER 14                       H2S04OUT                    
   B8           H2S04OUT                       FINAL                       
   B11          FINAL                          S1 S2                       

      COMPUTATION ORDER FOR THE FLOWSHEET IS:
      B2 REACTOR1 B4 B5 B9 B6 B10 B7 B12 B3 B8 B11 

Calculations begin                                                              time   1073.91


      UOS BLOCK B11      MODEL: SEP                                               TIME =   1073.91

  *   WARNING WHILE EXECUTING UNIT OPERATIONS BLOCK: "B11" (MODEL: "SEP")       
                                                               (NORMAL.2)       
      SUM OF SPLITS FOR (1) SPECIFICATIONS (1.0000005)                          
      IS NOT EQUAL TO 1 FOR "H2SO4". VALUES NORMALIZED.                         
      ---FLASH OUTLET STREAM S1      :
      KODE = 2  NTRIAL =   1  T = 353.1500  P =  131722.      V =  0.00000      Q =  0.00000    
      ---FLASH OUTLET STREAM S2      :
      KODE = 2  NTRIAL =   1  T = 353.1500  P =  131722.      V =  1.00000      Q =  0.00000    
<reset scope>
<reset scope>
<reset scope>
<reset scope>
<reset scope>
<reset scope>
<reset scope>
<reset scope>
<reset scope>


*** INPUT SPECIFICATION MESSAGES ***

 THE FOLLOWING PARAGRAPH(S) WERE DELETED:

 DELETE
   BLOCK        "B11     "

 BLOCK        B13      IS NEW 10/30/2024   18:33:14:99 
 BLOCK B13 SEP
     PARAM
     FRAC STREAM=S1 SUBSTREAM=MIXED COMPS=H2SO4 FRACS=1.

 FLOWSHEET    IS  NEW 10/30/2024   18:33:14:99 
 FLOWSHEET
     BLOCK REACTOR1 IN=3 AIR OUT=4
     BLOCK B2 IN=SULPHUR OUT=3
     BLOCK B4 IN=4 OUT=5
     BLOCK B5 IN=5 OUT=8
     BLOCK B6 IN=9 OUT=10
     BLOCK B7 IN=11 OUT=13
     BLOCK B9 IN=8 OUT=9
     BLOCK B10 IN=10 OUT=11
     BLOCK B12 IN=13 OUT=14
     BLOCK B3 IN=WATER 14 OUT=H2S04OUT
     BLOCK B8 IN=H2S04OUT OUT=FINAL
     BLOCK B13 IN=FINAL OUT=S1 S2

 PDF updated                                                                      TIME =   1244.96
 THIS COPY OF ASPEN PLUS LICENSED TO INDIAN INSTITUTE OF TECH        
 
 
 *** FLOWSHEET ANALYSIS MESSAGES ***

 FLOWSHEET CONNECTIVITY BY STREAMS       

   STREAM     SOURCE     DEST           STREAM     SOURCE     DEST
   AIR        ----       REACTOR1       SULPHUR    ----       B2      
   WATER      ----       B3             4          REACTOR1   B4      
   3          B2         REACTOR1       5          B4         B5      
   8          B5         B9             10         B6         B10     
   13         B7         B12            9          B9         B6      
   11         B10        B7             14         B12        B3      
   H2S04OUT   B3         B8             FINAL      B8         B13     
   S1         B13        ----           S2         B13        ----    

 FLOWSHEET CONNECTIVITY BY BLOCKS        

   BLOCK        INLETS                         OUTLETS
   REACTOR1     3 AIR                          4                           
   B2           SULPHUR                        3                           
   B4           4                              5                           
   B5           5                              8                           
   B6           9                              10                          
   B7           11                             13                          
   B9           8                              9                           
   B10          10                             11                          
   B12          13                             14                          
   B3           WATER 14                       H2S04OUT                    
   B8           H2S04OUT                       FINAL                       
   B13          FINAL                          S1 S2                       

      COMPUTATION ORDER FOR THE FLOWSHEET IS:
      B2 REACTOR1 B4 B5 B9 B6 B10 B7 B12 B3 B8 B13 


Calculations begin                                                              time   1244.97


      UOS BLOCK B13      MODEL: SEP                                               TIME =   1244.97
      ---FLASH OUTLET STREAM S1      :
      KODE = 2  NTRIAL =   1  T = 353.1500  P =  131722.      V =  0.00000      Q =  0.00000    
      ---FLASH OUTLET STREAM S2      :
      KODE = 2  NTRIAL =   1  T = 353.1500  P =  131722.      V =  1.00000      Q =  0.00000    


*** INPUT SPECIFICATION MESSAGES ***

 SENSITIVITY  S-1      IS NEW 10/30/2024   18:34:51:99 
 SENSITIVITY S-1
     DEFINE H2SO4 MASS-FLOW STREAM=H2S04OUT SUBSTREAM=MIXED  &
         COMPONENT=H2SO4 UOM="kg/hr"
     TABULATE 1 "H2SO4"
     VARY BLOCK-VAR BLOCK=B5 VARIABLE=CONV SENTENCE=CONV ID1=1
     RANGE OPT-LIST=RANGE LOWER="0.6" UPPER="1" NPOINT="21"

 PDF updated                                                                      TIME =   1341.69
 THIS COPY OF ASPEN PLUS LICENSED TO INDIAN INSTITUTE OF TECH        
 
 SENSITIVITY BLOCK: S-1 WILL BE INTERPRETED 
 
 *** FLOWSHEET ANALYSIS MESSAGES ***

      COMPUTATION ORDER FOR THE FLOWSHEET IS:
      B2 REACTOR1 B4 
      S-1 B5 B9 B6 B10 B7 B12 B3 
      (RETURN S-1) 
      B8 B13 


Calculations begin                                                              time   1341.70


 SENSITIVITY BLOCK S-1      ROW     1 EVALUATION BEGINS                           TIME =   1341.70
      VARY VARIABLES:  0.60000    

      UOS BLOCK B5       MODEL: RSTOIC                                            TIME =   1341.70
      KODE = 2  NTRIAL =   1  T = 853.1500  P =  101325.      V =  1.00000      Q = -117659.    

      UOS BLOCK B9       MODEL: HEATER                                            TIME =   1341.70
      KODE = 2  NTRIAL =   1  T = 703.1500  P =  101325.      V =  1.00000      Q =-1.175976E+06

      UOS BLOCK B6       MODEL: RSTOIC                                            TIME =   1341.70
      KODE = 2  NTRIAL =   1  T = 763.1500  P =  101325.      V =  1.00000      Q = -309448.    

      UOS BLOCK B10      MODEL: HEATER                                            TIME =   1341.70
      KODE = 2  NTRIAL =   1  T = 693.1500  P =  101325.      V =  1.00000      Q = -544117.    

      UOS BLOCK B7       MODEL: RSTOIC                                            TIME =   1341.70
      KODE = 2  NTRIAL =   1  T = 748.1500  P =  101325.      V =  1.00000      Q =  296749.    

      UOS BLOCK B12      MODEL: HEATER                                            TIME =   1341.70
      KODE = 2  NTRIAL =   1  T = 353.1500  P =  101325.      V =  1.00000      Q =-2.930124E+06

      UOS BLOCK B3       MODEL: RSTOIC                                            TIME =   1341.70
      KODE = 2  NTRIAL =   1  T = 353.1500  P =  131722.      V = 0.897744      Q =-2.433627E+06

 SENSITIVITY BLOCK S-1      ROW     2 EVALUATION BEGINS                           TIME =   1341.70
      VARY VARIABLES:  0.62000    

      UOS BLOCK B5       MODEL: RSTOIC                                            TIME =   1341.70
      KODE = 2  NTRIAL =   1  T = 853.1500  P =  101325.      V =  1.00000      Q = -163099.    

      UOS BLOCK B9       MODEL: HEATER                                            TIME =   1341.70
      KODE = 2  NTRIAL =   1  T = 703.1500  P =  101325.      V =  1.00000      Q =-1.176208E+06

      UOS BLOCK B6       MODEL: RSTOIC                                            TIME =   1341.70
      KODE = 2  NTRIAL =   1  T = 763.1500  P =  101325.      V =  1.00000      Q = -270614.    

      UOS BLOCK B10      MODEL: HEATER                                            TIME =   1341.70
      KODE = 2  NTRIAL =   1  T = 693.1500  P =  101325.      V =  1.00000      Q = -544132.    

      UOS BLOCK B7       MODEL: RSTOIC                                            TIME =   1341.70
      KODE = 2  NTRIAL =   1  T = 748.1500  P =  101325.      V =  1.00000      Q =  303260.    

      UOS BLOCK B12      MODEL: HEATER                                            TIME =   1341.70
      KODE = 2  NTRIAL =   1  T = 353.1500  P =  101325.      V =  1.00000      Q =-2.930126E+06

      UOS BLOCK B3       MODEL: RSTOIC                                            TIME =   1341.70
      KODE = 2  NTRIAL =   1  T = 353.1500  P =  131722.      V = 0.897730      Q =-2.434118E+06

 SENSITIVITY BLOCK S-1      ROW     3 EVALUATION BEGINS                           TIME =   1341.70
      VARY VARIABLES:  0.64000    

      UOS BLOCK B5       MODEL: RSTOIC                                            TIME =   1341.70
      KODE = 2  NTRIAL =   1  T = 853.1500  P =  101325.      V =  1.00000      Q = -208538.    

      UOS BLOCK B9       MODEL: HEATER                                            TIME =   1341.70
      KODE = 2  NTRIAL =   1  T = 703.1500  P =  101325.      V =  1.00000      Q =-1.176440E+06

      UOS BLOCK B6       MODEL: RSTOIC                                            TIME =   1341.70
      KODE = 2  NTRIAL =   1  T = 763.1500  P =  101325.      V =  1.00000      Q = -231780.    

      UOS BLOCK B10      MODEL: HEATER                                            TIME =   1341.70
      KODE = 2  NTRIAL =   1  T = 693.1500  P =  101325.      V =  1.00000      Q = -544147.    

      UOS BLOCK B7       MODEL: RSTOIC                                            TIME =   1341.70
      KODE = 2  NTRIAL =   1  T = 748.1500  P =  101325.      V =  1.00000      Q =  309771.    

      UOS BLOCK B12      MODEL: HEATER                                            TIME =   1341.70
      KODE = 2  NTRIAL =   1  T = 353.1500  P =  101325.      V =  1.00000      Q =-2.930128E+06

      UOS BLOCK B3       MODEL: RSTOIC                                            TIME =   1341.70
      KODE = 2  NTRIAL =   1  T = 353.1500  P =  131722.      V = 0.897716      Q =-2.434609E+06

 SENSITIVITY BLOCK S-1      ROW     4 EVALUATION BEGINS                           TIME =   1341.70
      VARY VARIABLES:  0.66000    

      UOS BLOCK B5       MODEL: RSTOIC                                            TIME =   1341.70
      KODE = 2  NTRIAL =   1  T = 853.1500  P =  101325.      V =  1.00000      Q = -253978.    

      UOS BLOCK B9       MODEL: HEATER                                            TIME =   1341.70
      KODE = 2  NTRIAL =   1  T = 703.1500  P =  101325.      V =  1.00000      Q =-1.176671E+06

      UOS BLOCK B6       MODEL: RSTOIC                                            TIME =   1341.70
      KODE = 2  NTRIAL =   1  T = 763.1500  P =  101325.      V =  1.00000      Q = -192946.    

      UOS BLOCK B10      MODEL: HEATER                                            TIME =   1341.70
      KODE = 2  NTRIAL =   1  T = 693.1500  P =  101325.      V =  1.00000      Q = -544162.    

      UOS BLOCK B7       MODEL: RSTOIC                                            TIME =   1341.70
      KODE = 2  NTRIAL =   1  T = 748.1500  P =  101325.      V =  1.00000      Q =  316282.    

      UOS BLOCK B12      MODEL: HEATER                                            TIME =   1341.70
      KODE = 2  NTRIAL =   1  T = 353.1500  P =  101325.      V =  1.00000      Q =-2.930130E+06

      UOS BLOCK B3       MODEL: RSTOIC                                            TIME =   1341.70
      KODE = 2  NTRIAL =   1  T = 353.1500  P =  131722.      V = 0.897702      Q =-2.435100E+06

 SENSITIVITY BLOCK S-1      ROW     5 EVALUATION BEGINS                           TIME =   1341.70
      VARY VARIABLES:  0.68000    

      UOS BLOCK B5       MODEL: RSTOIC                                            TIME =   1341.70
      KODE = 2  NTRIAL =   1  T = 853.1500  P =  101325.      V =  1.00000      Q = -299418.    

      UOS BLOCK B9       MODEL: HEATER                                            TIME =   1341.70
      KODE = 2  NTRIAL =   1  T = 703.1500  P =  101325.      V =  1.00000      Q =-1.176903E+06

      UOS BLOCK B6       MODEL: RSTOIC                                            TIME =   1341.70
      KODE = 2  NTRIAL =   1  T = 763.1500  P =  101325.      V =  1.00000      Q = -154113.    

      UOS BLOCK B10      MODEL: HEATER                                            TIME =   1341.70
      KODE = 2  NTRIAL =   1  T = 693.1500  P =  101325.      V =  1.00000      Q = -544177.    

      UOS BLOCK B7       MODEL: RSTOIC                                            TIME =   1341.70
      KODE = 2  NTRIAL =   1  T = 748.1500  P =  101325.      V =  1.00000      Q =  322792.    

      UOS BLOCK B12      MODEL: HEATER                                            TIME =   1341.70
      KODE = 2  NTRIAL =   1  T = 353.1500  P =  101325.      V =  1.00000      Q =-2.930131E+06

      UOS BLOCK B3       MODEL: RSTOIC                                            TIME =   1341.70
      KODE = 2  NTRIAL =   1  T = 353.1500  P =  131722.      V = 0.897689      Q =-2.435592E+06

 SENSITIVITY BLOCK S-1      ROW     6 EVALUATION BEGINS                           TIME =   1341.70
      VARY VARIABLES:  0.70000    

      UOS BLOCK B5       MODEL: RSTOIC                                            TIME =   1341.70
      KODE = 2  NTRIAL =   1  T = 853.1500  P =  101325.      V =  1.00000      Q = -344857.    

      UOS BLOCK B9       MODEL: HEATER                                            TIME =   1341.70
      KODE = 2  NTRIAL =   1  T = 703.1500  P =  101325.      V =  1.00000      Q =-1.177135E+06

      UOS BLOCK B6       MODEL: RSTOIC                                            TIME =   1341.70
      KODE = 2  NTRIAL =   1  T = 763.1500  P =  101325.      V =  1.00000      Q = -115279.    

      UOS BLOCK B10      MODEL: HEATER                                            TIME =   1341.70
      KODE = 2  NTRIAL =   1  T = 693.1500  P =  101325.      V =  1.00000      Q = -544192.    

      UOS BLOCK B7       MODEL: RSTOIC                                            TIME =   1341.70
      KODE = 2  NTRIAL =   1  T = 748.1500  P =  101325.      V =  1.00000      Q =  329303.    

      UOS BLOCK B12      MODEL: HEATER                                            TIME =   1341.70
      KODE = 2  NTRIAL =   1  T = 353.1500  P =  101325.      V =  1.00000      Q =-2.930133E+06

      UOS BLOCK B3       MODEL: RSTOIC                                            TIME =   1341.70
      KODE = 2  NTRIAL =   1  T = 353.1500  P =  131722.      V = 0.897675      Q =-2.436083E+06

 SENSITIVITY BLOCK S-1      ROW     7 EVALUATION BEGINS                           TIME =   1341.70
      VARY VARIABLES:  0.72000    

      UOS BLOCK B5       MODEL: RSTOIC                                            TIME =   1341.70
      KODE = 2  NTRIAL =   1  T = 853.1500  P =  101325.      V =  1.00000      Q = -390297.    

      UOS BLOCK B9       MODEL: HEATER                                            TIME =   1341.70
      KODE = 2  NTRIAL =   1  T = 703.1500  P =  101325.      V =  1.00000      Q =-1.177367E+06

      UOS BLOCK B6       MODEL: RSTOIC                                            TIME =   1341.70
      KODE = 2  NTRIAL =   1  T = 763.1500  P =  101325.      V =  1.00000      Q = -76444.8    

      UOS BLOCK B10      MODEL: HEATER                                            TIME =   1341.70
      KODE = 2  NTRIAL =   1  T = 693.1500  P =  101325.      V =  1.00000      Q = -544207.    

      UOS BLOCK B7       MODEL: RSTOIC                                            TIME =   1341.70
      KODE = 2  NTRIAL =   1  T = 748.1500  P =  101325.      V =  1.00000      Q =  335814.    

      UOS BLOCK B12      MODEL: HEATER                                            TIME =   1341.70
      KODE = 2  NTRIAL =   1  T = 353.1500  P =  101325.      V =  1.00000      Q =-2.930135E+06

      UOS BLOCK B3       MODEL: RSTOIC                                            TIME =   1341.70
      KODE = 2  NTRIAL =   1  T = 353.1500  P =  131722.      V = 0.897661      Q =-2.436574E+06

 SENSITIVITY BLOCK S-1      ROW     8 EVALUATION BEGINS                           TIME =   1341.70
      VARY VARIABLES:  0.74000    

      UOS BLOCK B5       MODEL: RSTOIC                                            TIME =   1341.70
      KODE = 2  NTRIAL =   1  T = 853.1500  P =  101325.      V =  1.00000      Q = -435737.    

      UOS BLOCK B9       MODEL: HEATER                                            TIME =   1341.70
      KODE = 2  NTRIAL =   1  T = 703.1500  P =  101325.      V =  1.00000      Q =-1.177599E+06

      UOS BLOCK B6       MODEL: RSTOIC                                            TIME =   1341.70
      KODE = 2  NTRIAL =   1  T = 763.1500  P =  101325.      V =  1.00000      Q = -37611.0    

      UOS BLOCK B10      MODEL: HEATER                                            TIME =   1341.70
      KODE = 2  NTRIAL =   1  T = 693.1500  P =  101325.      V =  1.00000      Q = -544223.    

      UOS BLOCK B7       MODEL: RSTOIC                                            TIME =   1341.70
      KODE = 2  NTRIAL =   1  T = 748.1500  P =  101325.      V =  1.00000      Q =  342324.    

      UOS BLOCK B12      MODEL: HEATER                                            TIME =   1341.70
      KODE = 2  NTRIAL =   1  T = 353.1500  P =  101325.      V =  1.00000      Q =-2.930137E+06

      UOS BLOCK B3       MODEL: RSTOIC                                            TIME =   1341.70
      KODE = 2  NTRIAL =   1  T = 353.1500  P =  131722.      V = 0.897647      Q =-2.437065E+06

 SENSITIVITY BLOCK S-1      ROW     9 EVALUATION BEGINS                           TIME =   1341.70
      VARY VARIABLES:  0.76000    

      UOS BLOCK B5       MODEL: RSTOIC                                            TIME =   1341.70
      KODE = 2  NTRIAL =   1  T = 853.1500  P =  101325.      V =  1.00000      Q = -481176.    

      UOS BLOCK B9       MODEL: HEATER                                            TIME =   1341.70
      KODE = 2  NTRIAL =   1  T = 703.1500  P =  101325.      V =  1.00000      Q =-1.177831E+06

      UOS BLOCK B6       MODEL: RSTOIC                                            TIME =   1341.70
      KODE = 2  NTRIAL =   1  T = 763.1500  P =  101325.      V =  1.00000      Q =  1222.83    

      UOS BLOCK B10      MODEL: HEATER                                            TIME =   1341.70
      KODE = 2  NTRIAL =   1  T = 693.1500  P =  101325.      V =  1.00000      Q = -544238.    

      UOS BLOCK B7       MODEL: RSTOIC                                            TIME =   1341.70
      KODE = 2  NTRIAL =   1  T = 748.1500  P =  101325.      V =  1.00000      Q =  348835.    

      UOS BLOCK B12      MODEL: HEATER                                            TIME =   1341.70
      KODE = 2  NTRIAL =   1  T = 353.1500  P =  101325.      V =  1.00000      Q =-2.930139E+06

      UOS BLOCK B3       MODEL: RSTOIC                                            TIME =   1341.70
      KODE = 2  NTRIAL =   1  T = 353.1500  P =  131722.      V = 0.897633      Q =-2.437557E+06

 SENSITIVITY BLOCK S-1      ROW    10 EVALUATION BEGINS                           TIME =   1341.70
      VARY VARIABLES:  0.78000    

      UOS BLOCK B5       MODEL: RSTOIC                                            TIME =   1341.70
      KODE = 2  NTRIAL =   1  T = 853.1500  P =  101325.      V =  1.00000      Q = -526616.    

      UOS BLOCK B9       MODEL: HEATER                                            TIME =   1341.70
      KODE = 2  NTRIAL =   1  T = 703.1500  P =  101325.      V =  1.00000      Q =-1.178063E+06

      UOS BLOCK B6       MODEL: RSTOIC                                            TIME =   1341.70
      KODE = 2  NTRIAL =   1  T = 763.1500  P =  101325.      V =  1.00000      Q =  40056.7    

      UOS BLOCK B10      MODEL: HEATER                                            TIME =   1341.70
      KODE = 2  NTRIAL =   1  T = 693.1500  P =  101325.      V =  1.00000      Q = -544253.    

      UOS BLOCK B7       MODEL: RSTOIC                                            TIME =   1341.70
      KODE = 2  NTRIAL =   1  T = 748.1500  P =  101325.      V =  1.00000      Q =  355346.    

      UOS BLOCK B12      MODEL: HEATER                                            TIME =   1341.70
      KODE = 2  NTRIAL =   1  T = 353.1500  P =  101325.      V =  1.00000      Q =-2.930140E+06

      UOS BLOCK B3       MODEL: RSTOIC                                            TIME =   1341.70
      KODE = 2  NTRIAL =   1  T = 353.1500  P =  131722.      V = 0.897619      Q =-2.438048E+06

 SENSITIVITY BLOCK S-1      ROW    11 EVALUATION BEGINS                           TIME =   1341.70
      VARY VARIABLES:  0.80000    

      UOS BLOCK B5       MODEL: RSTOIC                                            TIME =   1341.70
      KODE = 2  NTRIAL =   1  T = 853.1500  P =  101325.      V =  1.00000      Q = -572056.    

      UOS BLOCK B9       MODEL: HEATER                                            TIME =   1341.70
      KODE = 2  NTRIAL =   1  T = 703.1500  P =  101325.      V =  1.00000      Q =-1.178294E+06

      UOS BLOCK B6       MODEL: RSTOIC                                            TIME =   1341.70
      KODE = 2  NTRIAL =   1  T = 763.1500  P =  101325.      V =  1.00000      Q =  78890.5    

      UOS BLOCK B10      MODEL: HEATER                                            TIME =   1341.70
      KODE = 2  NTRIAL =   1  T = 693.1500  P =  101325.      V =  1.00000      Q = -544268.    

      UOS BLOCK B7       MODEL: RSTOIC                                            TIME =   1341.70
      KODE = 2  NTRIAL =   1  T = 748.1500  P =  101325.      V =  1.00000      Q =  361857.    

      UOS BLOCK B12      MODEL: HEATER                                            TIME =   1341.70
      KODE = 2  NTRIAL =   1  T = 353.1500  P =  101325.      V =  1.00000      Q =-2.930142E+06

      UOS BLOCK B3       MODEL: RSTOIC                                            TIME =   1341.70
      KODE = 2  NTRIAL =   1  T = 353.1500  P =  131722.      V = 0.897605      Q =-2.438539E+06

 SENSITIVITY BLOCK S-1      ROW    12 EVALUATION BEGINS                           TIME =   1341.70
      VARY VARIABLES:  0.82000    

      UOS BLOCK B5       MODEL: RSTOIC                                            TIME =   1341.71
      KODE = 2  NTRIAL =   1  T = 853.1500  P =  101325.      V =  1.00000      Q = -617495.    

      UOS BLOCK B9       MODEL: HEATER                                            TIME =   1341.71
      KODE = 2  NTRIAL =   1  T = 703.1500  P =  101325.      V =  1.00000      Q =-1.178526E+06

      UOS BLOCK B6       MODEL: RSTOIC                                            TIME =   1341.71
      KODE = 2  NTRIAL =   1  T = 763.1500  P =  101325.      V =  1.00000      Q =  117724.    

      UOS BLOCK B10      MODEL: HEATER                                            TIME =   1341.71
      KODE = 2  NTRIAL =   1  T = 693.1500  P =  101325.      V =  1.00000      Q = -544283.    

      UOS BLOCK B7       MODEL: RSTOIC                                            TIME =   1341.71
      KODE = 2  NTRIAL =   1  T = 748.1500  P =  101325.      V =  1.00000      Q =  368367.    

      UOS BLOCK B12      MODEL: HEATER                                            TIME =   1341.71
      KODE = 2  NTRIAL =   1  T = 353.1500  P =  101325.      V =  1.00000      Q =-2.930144E+06

      UOS BLOCK B3       MODEL: RSTOIC                                            TIME =   1341.71
      KODE = 2  NTRIAL =   1  T = 353.1500  P =  131722.      V = 0.897591      Q =-2.439030E+06

 SENSITIVITY BLOCK S-1      ROW    13 EVALUATION BEGINS                           TIME =   1341.71
      VARY VARIABLES:  0.84000    

      UOS BLOCK B5       MODEL: RSTOIC                                            TIME =   1341.71
      KODE = 2  NTRIAL =   1  T = 853.1500  P =  101325.      V =  1.00000      Q = -662935.    

      UOS BLOCK B9       MODEL: HEATER                                            TIME =   1341.71
      KODE = 2  NTRIAL =   1  T = 703.1500  P =  101325.      V =  1.00000      Q =-1.178758E+06

      UOS BLOCK B6       MODEL: RSTOIC                                            TIME =   1341.71
      KODE = 2  NTRIAL =   1  T = 763.1500  P =  101325.      V =  1.00000      Q =  156558.    

      UOS BLOCK B10      MODEL: HEATER                                            TIME =   1341.71
      KODE = 2  NTRIAL =   1  T = 693.1500  P =  101325.      V =  1.00000      Q = -544298.    

      UOS BLOCK B7       MODEL: RSTOIC                                            TIME =   1341.71
      KODE = 2  NTRIAL =   1  T = 748.1500  P =  101325.      V =  1.00000      Q =  374878.    

      UOS BLOCK B12      MODEL: HEATER                                            TIME =   1341.71
      KODE = 2  NTRIAL =   1  T = 353.1500  P =  101325.      V =  1.00000      Q =-2.930146E+06

      UOS BLOCK B3       MODEL: RSTOIC                                            TIME =   1341.71
      KODE = 2  NTRIAL =   1  T = 353.1500  P =  131722.      V = 0.897577      Q =-2.439521E+06

 SENSITIVITY BLOCK S-1      ROW    14 EVALUATION BEGINS                           TIME =   1341.71
      VARY VARIABLES:  0.86000    

      UOS BLOCK B5       MODEL: RSTOIC                                            TIME =   1341.71
      KODE = 2  NTRIAL =   1  T = 853.1500  P =  101325.      V =  1.00000      Q = -708374.    

      UOS BLOCK B9       MODEL: HEATER                                            TIME =   1341.71
      KODE = 2  NTRIAL =   1  T = 703.1500  P =  101325.      V =  1.00000      Q =-1.178990E+06

      UOS BLOCK B6       MODEL: RSTOIC                                            TIME =   1341.71
      KODE = 2  NTRIAL =   1  T = 763.1500  P =  101325.      V =  1.00000      Q =  195392.    

      UOS BLOCK B10      MODEL: HEATER                                            TIME =   1341.71
      KODE = 2  NTRIAL =   1  T = 693.1500  P =  101325.      V =  1.00000      Q = -544313.    

      UOS BLOCK B7       MODEL: RSTOIC                                            TIME =   1341.71
      KODE = 2  NTRIAL =   1  T = 748.1500  P =  101325.      V =  1.00000      Q =  381389.    

      UOS BLOCK B12      MODEL: HEATER                                            TIME =   1341.71
      KODE = 2  NTRIAL =   1  T = 353.1500  P =  101325.      V =  1.00000      Q =-2.930148E+06

      UOS BLOCK B3       MODEL: RSTOIC                                            TIME =   1341.71
      KODE = 2  NTRIAL =   1  T = 353.1500  P =  131722.      V = 0.897563      Q =-2.440013E+06

 SENSITIVITY BLOCK S-1      ROW    15 EVALUATION BEGINS                           TIME =   1341.71
      VARY VARIABLES:  0.88000    

      UOS BLOCK B5       MODEL: RSTOIC                                            TIME =   1341.71
      KODE = 2  NTRIAL =   1  T = 853.1500  P =  101325.      V =  1.00000      Q = -753814.    

      UOS BLOCK B9       MODEL: HEATER                                            TIME =   1341.71
      KODE = 2  NTRIAL =   1  T = 703.1500  P =  101325.      V =  1.00000      Q =-1.179222E+06

      UOS BLOCK B6       MODEL: RSTOIC                                            TIME =   1341.71
      KODE = 2  NTRIAL =   1  T = 763.1500  P =  101325.      V =  1.00000      Q =  234226.    

      UOS BLOCK B10      MODEL: HEATER                                            TIME =   1341.71
      KODE = 2  NTRIAL =   1  T = 693.1500  P =  101325.      V =  1.00000      Q = -544328.    

      UOS BLOCK B7       MODEL: RSTOIC                                            TIME =   1341.71
      KODE = 2  NTRIAL =   1  T = 748.1500  P =  101325.      V =  1.00000      Q =  387899.    

      UOS BLOCK B12      MODEL: HEATER                                            TIME =   1341.71
      KODE = 2  NTRIAL =   1  T = 353.1500  P =  101325.      V =  1.00000      Q =-2.930149E+06

      UOS BLOCK B3       MODEL: RSTOIC                                            TIME =   1341.71
      KODE = 2  NTRIAL =   1  T = 353.1500  P =  131722.      V = 0.897549      Q =-2.440504E+06

 SENSITIVITY BLOCK S-1      ROW    16 EVALUATION BEGINS                           TIME =   1341.71
      VARY VARIABLES:  0.90000    

      UOS BLOCK B5       MODEL: RSTOIC                                            TIME =   1341.71
      KODE = 2  NTRIAL =   1  T = 853.1500  P =  101325.      V =  1.00000      Q = -799254.    

      UOS BLOCK B9       MODEL: HEATER                                            TIME =   1341.71
      KODE = 2  NTRIAL =   1  T = 703.1500  P =  101325.      V =  1.00000      Q =-1.179454E+06

      UOS BLOCK B6       MODEL: RSTOIC                                            TIME =   1341.71
      KODE = 2  NTRIAL =   1  T = 763.1500  P =  101325.      V =  1.00000      Q =  273060.    

      UOS BLOCK B10      MODEL: HEATER                                            TIME =   1341.71
      KODE = 2  NTRIAL =   1  T = 693.1500  P =  101325.      V =  1.00000      Q = -544343.    

      UOS BLOCK B7       MODEL: RSTOIC                                            TIME =   1341.71
      KODE = 2  NTRIAL =   1  T = 748.1500  P =  101325.      V =  1.00000      Q =  394410.    

      UOS BLOCK B12      MODEL: HEATER                                            TIME =   1341.71
      KODE = 2  NTRIAL =   1  T = 353.1500  P =  101325.      V =  1.00000      Q =-2.930151E+06

      UOS BLOCK B3       MODEL: RSTOIC                                            TIME =   1341.71
      KODE = 2  NTRIAL =   1  T = 353.1500  P =  131722.      V = 0.897535      Q =-2.440995E+06

 SENSITIVITY BLOCK S-1      ROW    17 EVALUATION BEGINS                           TIME =   1341.71
      VARY VARIABLES:  0.92000    

      UOS BLOCK B5       MODEL: RSTOIC                                            TIME =   1341.71
      KODE = 2  NTRIAL =   1  T = 853.1500  P =  101325.      V =  1.00000      Q = -844693.    

      UOS BLOCK B9       MODEL: HEATER                                            TIME =   1341.71
      KODE = 2  NTRIAL =   1  T = 703.1500  P =  101325.      V =  1.00000      Q =-1.179686E+06

      UOS BLOCK B6       MODEL: RSTOIC                                            TIME =   1341.71
      KODE = 2  NTRIAL =   1  T = 763.1500  P =  101325.      V =  1.00000      Q =  311894.    

      UOS BLOCK B10      MODEL: HEATER                                            TIME =   1341.71
      KODE = 2  NTRIAL =   1  T = 693.1500  P =  101325.      V =  1.00000      Q = -544358.    

      UOS BLOCK B7       MODEL: RSTOIC                                            TIME =   1341.71
      KODE = 2  NTRIAL =   1  T = 748.1500  P =  101325.      V =  1.00000      Q =  400921.    

      UOS BLOCK B12      MODEL: HEATER                                            TIME =   1341.71
      KODE = 2  NTRIAL =   1  T = 353.1500  P =  101325.      V =  1.00000      Q =-2.930153E+06

      UOS BLOCK B3       MODEL: RSTOIC                                            TIME =   1341.71
      KODE = 2  NTRIAL =   1  T = 353.1500  P =  131722.      V = 0.897521      Q =-2.441486E+06

 SENSITIVITY BLOCK S-1      ROW    18 EVALUATION BEGINS                           TIME =   1341.71
      VARY VARIABLES:  0.94000    

      UOS BLOCK B5       MODEL: RSTOIC                                            TIME =   1341.71
      KODE = 2  NTRIAL =   1  T = 853.1500  P =  101325.      V =  1.00000      Q = -890133.    

      UOS BLOCK B9       MODEL: HEATER                                            TIME =   1341.71
      KODE = 2  NTRIAL =   1  T = 703.1500  P =  101325.      V =  1.00000      Q =-1.179918E+06

      UOS BLOCK B6       MODEL: RSTOIC                                            TIME =   1341.71
      KODE = 2  NTRIAL =   1  T = 763.1500  P =  101325.      V =  1.00000      Q =  350727.    

      UOS BLOCK B10      MODEL: HEATER                                            TIME =   1341.71
      KODE = 2  NTRIAL =   1  T = 693.1500  P =  101325.      V =  1.00000      Q = -544373.    

      UOS BLOCK B7       MODEL: RSTOIC                                            TIME =   1341.71
      KODE = 2  NTRIAL =   1  T = 748.1500  P =  101325.      V =  1.00000      Q =  407432.    

      UOS BLOCK B12      MODEL: HEATER                                            TIME =   1341.71
      KODE = 2  NTRIAL =   1  T = 353.1500  P =  101325.      V =  1.00000      Q =-2.930155E+06

      UOS BLOCK B3       MODEL: RSTOIC                                            TIME =   1341.71
      KODE = 2  NTRIAL =   1  T = 353.1500  P =  131722.      V = 0.897507      Q =-2.441977E+06

 SENSITIVITY BLOCK S-1      ROW    19 EVALUATION BEGINS                           TIME =   1341.71
      VARY VARIABLES:  0.96000    

      UOS BLOCK B5       MODEL: RSTOIC                                            TIME =   1341.71
      KODE = 2  NTRIAL =   1  T = 853.1500  P =  101325.      V =  1.00000      Q = -935573.    

      UOS BLOCK B9       MODEL: HEATER                                            TIME =   1341.71
      KODE = 2  NTRIAL =   1  T = 703.1500  P =  101325.      V =  1.00000      Q =-1.180149E+06

      UOS BLOCK B6       MODEL: RSTOIC                                            TIME =   1341.71
      KODE = 2  NTRIAL =   1  T = 763.1500  P =  101325.      V =  1.00000      Q =  389561.    

      UOS BLOCK B10      MODEL: HEATER                                            TIME =   1341.71
      KODE = 2  NTRIAL =   1  T = 693.1500  P =  101325.      V =  1.00000      Q = -544388.    

      UOS BLOCK B7       MODEL: RSTOIC                                            TIME =   1341.71
      KODE = 2  NTRIAL =   1  T = 748.1500  P =  101325.      V =  1.00000      Q =  413942.    

      UOS BLOCK B12      MODEL: HEATER                                            TIME =   1341.71
      KODE = 2  NTRIAL =   1  T = 353.1500  P =  101325.      V =  1.00000      Q =-2.930157E+06

      UOS BLOCK B3       MODEL: RSTOIC                                            TIME =   1341.71
      KODE = 2  NTRIAL =   1  T = 353.1500  P =  131722.      V = 0.897493      Q =-2.442468E+06

 SENSITIVITY BLOCK S-1      ROW    20 EVALUATION BEGINS                           TIME =   1341.71
      VARY VARIABLES:  0.98000    

      UOS BLOCK B5       MODEL: RSTOIC                                            TIME =   1341.71
      KODE = 2  NTRIAL =   1  T = 853.1500  P =  101325.      V =  1.00000      Q = -981012.    

      UOS BLOCK B9       MODEL: HEATER                                            TIME =   1341.71
      KODE = 2  NTRIAL =   1  T = 703.1500  P =  101325.      V =  1.00000      Q =-1.180381E+06

      UOS BLOCK B6       MODEL: RSTOIC                                            TIME =   1341.71
      KODE = 2  NTRIAL =   1  T = 763.1500  P =  101325.      V =  1.00000      Q =  428395.    

      UOS BLOCK B10      MODEL: HEATER                                            TIME =   1341.71
      KODE = 2  NTRIAL =   1  T = 693.1500  P =  101325.      V =  1.00000      Q = -544404.    

      UOS BLOCK B7       MODEL: RSTOIC                                            TIME =   1341.71
      KODE = 2  NTRIAL =   1  T = 748.1500  P =  101325.      V =  1.00000      Q =  420453.    

      UOS BLOCK B12      MODEL: HEATER                                            TIME =   1341.71
      KODE = 2  NTRIAL =   1  T = 353.1500  P =  101325.      V =  1.00000      Q =-2.930158E+06

      UOS BLOCK B3       MODEL: RSTOIC                                            TIME =   1341.71
      KODE = 2  NTRIAL =   1  T = 353.1500  P =  131722.      V = 0.897479      Q =-2.442960E+06

 SENSITIVITY BLOCK S-1      ROW    21 EVALUATION BEGINS                           TIME =   1341.71
      VARY VARIABLES:   1.0000    

      UOS BLOCK B5       MODEL: RSTOIC                                            TIME =   1341.71
      KODE = 2  NTRIAL =   1  T = 853.1500  P =  101325.      V =  1.00000      Q =-1.026452E+06

      UOS BLOCK B9       MODEL: HEATER                                            TIME =   1341.71
      KODE = 2  NTRIAL =   1  T = 703.1500  P =  101325.      V =  1.00000      Q =-1.180613E+06

      UOS BLOCK B6       MODEL: RSTOIC                                            TIME =   1341.71
      KODE = 2  NTRIAL =   1  T = 763.1500  P =  101325.      V =  1.00000      Q =  467229.    

      UOS BLOCK B10      MODEL: HEATER                                            TIME =   1341.71
      KODE = 2  NTRIAL =   1  T = 693.1500  P =  101325.      V =  1.00000      Q = -544419.    

      UOS BLOCK B7       MODEL: RSTOIC                                            TIME =   1341.71
      KODE = 2  NTRIAL =   1  T = 748.1500  P =  101325.      V =  1.00000      Q =  426964.    

      UOS BLOCK B12      MODEL: HEATER                                            TIME =   1341.71
      KODE = 2  NTRIAL =   1  T = 353.1500  P =  101325.      V =  1.00000      Q =-2.930160E+06

      UOS BLOCK B3       MODEL: RSTOIC                                            TIME =   1341.71
      KODE = 2  NTRIAL =   1  T = 353.1500  P =  131722.      V = 0.897465      Q =-2.443451E+06

 SENSITIVITY BLOCK S-1      ROW    22 (BASE CASE) EVALUATION BEGINS               TIME =   1341.71

    SET IFINAL TO   1
      VARY VARIABLES:  0.65000    

      UOS BLOCK B5       MODEL: RSTOIC                                            TIME =   1341.71
      KODE = 2  NTRIAL =   1  T = 853.1500  P =  101325.      V =  1.00000      Q = -231258.    

      UOS BLOCK B9       MODEL: HEATER                                            TIME =   1341.71
      KODE = 2  NTRIAL =   1  T = 703.1500  P =  101325.      V =  1.00000      Q =-1.176555E+06

      UOS BLOCK B6       MODEL: RSTOIC                                            TIME =   1341.71
      KODE = 2  NTRIAL =   1  T = 763.1500  P =  101325.      V =  1.00000      Q = -212363.    

      UOS BLOCK B10      MODEL: HEATER                                            TIME =   1341.71
      KODE = 2  NTRIAL =   1  T = 693.1500  P =  101325.      V =  1.00000      Q = -544155.    

      UOS BLOCK B7       MODEL: RSTOIC                                            TIME =   1341.71
      KODE = 2  NTRIAL =   1  T = 748.1500  P =  101325.      V =  1.00000      Q =  313026.    

      UOS BLOCK B12      MODEL: HEATER                                            TIME =   1341.71
      KODE = 2  NTRIAL =   1  T = 353.1500  P =  101325.      V =  1.00000      Q =-2.930129E+06

      UOS BLOCK B3       MODEL: RSTOIC                                            TIME =   1341.71
      KODE = 2  NTRIAL =   1  T = 353.1500  P =  131722.      V = 0.897709      Q =-2.434855E+06

    SET IFINAL TO   0

      UOS BLOCK B8       MODEL: RSTOIC                                            TIME =   1341.71
      KODE = 2  NTRIAL =   1  T = 353.1500  P =  131722.      V = 0.895180      Q = -97114.2    

      UOS BLOCK B13      MODEL: SEP                                               TIME =   1341.71
      ---FLASH OUTLET STREAM S1      :
      KODE = 2  NTRIAL =   1  T = 353.1500  P =  131722.      V =  0.00000      Q =  0.00000    
      ---FLASH OUTLET STREAM S2      :
      KODE = 2  NTRIAL =   1  T = 353.1500  P =  131722.      V =  1.00000      Q =  0.00000    

      GENERATING RESULTS FOR UOS BLOCK B9       MODEL: HEATER                     TIME =   1341.71

      GENERATING RESULTS FOR UOS BLOCK B10      MODEL: HEATER                     TIME =   1341.72

      GENERATING RESULTS FOR UOS BLOCK B12      MODEL: HEATER                     TIME =   1341.72


*** INPUT SPECIFICATION MESSAGES ***

 CHANGES WERE MADE TO SENSITIVITY  S-1      10/30/2024   18:35:56:99 
 SENSITIVITY S-1
     DEFINE H2SO4 MASS-FLOW STREAM=S2 SUBSTREAM=MIXED  &
         COMPONENT=H2SO4 UOM="kg/hr"
     TABULATE 1 "H2SO4"
     VARY BLOCK-VAR BLOCK=B5 VARIABLE=CONV SENTENCE=CONV ID1=1
     RANGE OPT-LIST=RANGE LOWER="0.6" UPPER="1" NPOINT="21"

 PDF updated                                                                      TIME =   1406.88
 THIS COPY OF ASPEN PLUS LICENSED TO INDIAN INSTITUTE OF TECH        
 
 SENSITIVITY BLOCK: S-1 WILL BE INTERPRETED 
 
 *** FLOWSHEET ANALYSIS MESSAGES ***

      COMPUTATION ORDER FOR THE FLOWSHEET IS:
      B2 REACTOR1 B4 
      S-1 B5 B9 B6 B10 B7 B12 B3 B8 B13 
      (RETURN S-1) 


Calculations begin                                                              time   1406.89


 SENSITIVITY BLOCK S-1      ROW     1 EVALUATION BEGINS                           TIME =   1406.89
      VARY VARIABLES:  0.60000    

      UOS BLOCK B5       MODEL: RSTOIC                                            TIME =   1406.89
      KODE = 2  NTRIAL =   1  T = 853.1500  P =  101325.      V =  1.00000      Q = -117659.    

      UOS BLOCK B9       MODEL: HEATER                                            TIME =   1406.89
      KODE = 2  NTRIAL =   1  T = 703.1500  P =  101325.      V =  1.00000      Q =-1.175976E+06

      UOS BLOCK B6       MODEL: RSTOIC                                            TIME =   1406.89
      KODE = 2  NTRIAL =   1  T = 763.1500  P =  101325.      V =  1.00000      Q = -309448.    

      UOS BLOCK B10      MODEL: HEATER                                            TIME =   1406.89
      KODE = 2  NTRIAL =   1  T = 693.1500  P =  101325.      V =  1.00000      Q = -544117.    

      UOS BLOCK B7       MODEL: RSTOIC                                            TIME =   1406.89
      KODE = 2  NTRIAL =   1  T = 748.1500  P =  101325.      V =  1.00000      Q =  296749.    

      UOS BLOCK B12      MODEL: HEATER                                            TIME =   1406.89
      KODE = 2  NTRIAL =   1  T = 353.1500  P =  101325.      V =  1.00000      Q =-2.930124E+06

      UOS BLOCK B3       MODEL: RSTOIC                                            TIME =   1406.89
      KODE = 2  NTRIAL =   1  T = 353.1500  P =  131722.      V = 0.897744      Q =-2.433627E+06

      UOS BLOCK B8       MODEL: RSTOIC                                            TIME =   1406.89
      KODE = 2  NTRIAL =   1  T = 353.1500  P =  131722.      V = 0.895216      Q = -97081.7    

      UOS BLOCK B13      MODEL: SEP                                               TIME =   1406.89
      ---FLASH OUTLET STREAM S1      :
      KODE = 2  NTRIAL =   1  T = 353.1500  P =  131722.      V =  0.00000      Q =  0.00000    
      ---FLASH OUTLET STREAM S2      :
      KODE = 2  NTRIAL =   1  T = 353.1500  P =  131722.      V =  1.00000      Q =  0.00000    

 SENSITIVITY BLOCK S-1      ROW     2 EVALUATION BEGINS                           TIME =   1406.89
      VARY VARIABLES:  0.62000    

      UOS BLOCK B5       MODEL: RSTOIC                                            TIME =   1406.89
      KODE = 2  NTRIAL =   1  T = 853.1500  P =  101325.      V =  1.00000      Q = -163099.    

      UOS BLOCK B9       MODEL: HEATER                                            TIME =   1406.89
      KODE = 2  NTRIAL =   1  T = 703.1500  P =  101325.      V =  1.00000      Q =-1.176208E+06

      UOS BLOCK B6       MODEL: RSTOIC                                            TIME =   1406.89
      KODE = 2  NTRIAL =   1  T = 763.1500  P =  101325.      V =  1.00000      Q = -270614.    

      UOS BLOCK B10      MODEL: HEATER                                            TIME =   1406.89
      KODE = 2  NTRIAL =   1  T = 693.1500  P =  101325.      V =  1.00000      Q = -544132.    

      UOS BLOCK B7       MODEL: RSTOIC                                            TIME =   1406.89
      KODE = 2  NTRIAL =   1  T = 748.1500  P =  101325.      V =  1.00000      Q =  303260.    

      UOS BLOCK B12      MODEL: HEATER                                            TIME =   1406.89
      KODE = 2  NTRIAL =   1  T = 353.1500  P =  101325.      V =  1.00000      Q =-2.930126E+06

      UOS BLOCK B3       MODEL: RSTOIC                                            TIME =   1406.89
      KODE = 2  NTRIAL =   1  T = 353.1500  P =  131722.      V = 0.897730      Q =-2.434118E+06

      UOS BLOCK B8       MODEL: RSTOIC                                            TIME =   1406.89
      KODE = 2  NTRIAL =   1  T = 353.1500  P =  131722.      V = 0.895201      Q = -97094.7    

      UOS BLOCK B13      MODEL: SEP                                               TIME =   1406.89
      ---FLASH OUTLET STREAM S1      :
      KODE = 2  NTRIAL =   1  T = 353.1500  P =  131722.      V =  0.00000      Q =  0.00000    
      ---FLASH OUTLET STREAM S2      :
      KODE = 2  NTRIAL =   1  T = 353.1500  P =  131722.      V =  1.00000      Q =  0.00000    

 SENSITIVITY BLOCK S-1      ROW     3 EVALUATION BEGINS                           TIME =   1406.89
      VARY VARIABLES:  0.64000    

      UOS BLOCK B5       MODEL: RSTOIC                                            TIME =   1406.89
      KODE = 2  NTRIAL =   1  T = 853.1500  P =  101325.      V =  1.00000      Q = -208538.    

      UOS BLOCK B9       MODEL: HEATER                                            TIME =   1406.89
      KODE = 2  NTRIAL =   1  T = 703.1500  P =  101325.      V =  1.00000      Q =-1.176440E+06

      UOS BLOCK B6       MODEL: RSTOIC                                            TIME =   1406.89
      KODE = 2  NTRIAL =   1  T = 763.1500  P =  101325.      V =  1.00000      Q = -231780.    

      UOS BLOCK B10      MODEL: HEATER                                            TIME =   1406.89
      KODE = 2  NTRIAL =   1  T = 693.1500  P =  101325.      V =  1.00000      Q = -544147.    

      UOS BLOCK B7       MODEL: RSTOIC                                            TIME =   1406.89
      KODE = 2  NTRIAL =   1  T = 748.1500  P =  101325.      V =  1.00000      Q =  309771.    

      UOS BLOCK B12      MODEL: HEATER                                            TIME =   1406.89
      KODE = 2  NTRIAL =   1  T = 353.1500  P =  101325.      V =  1.00000      Q =-2.930128E+06

      UOS BLOCK B3       MODEL: RSTOIC                                            TIME =   1406.89
      KODE = 2  NTRIAL =   1  T = 353.1500  P =  131722.      V = 0.897716      Q =-2.434609E+06

      UOS BLOCK B8       MODEL: RSTOIC                                            TIME =   1406.89
      KODE = 2  NTRIAL =   1  T = 353.1500  P =  131722.      V = 0.895187      Q = -97107.7    

      UOS BLOCK B13      MODEL: SEP                                               TIME =   1406.89
      ---FLASH OUTLET STREAM S1      :
      KODE = 2  NTRIAL =   1  T = 353.1500  P =  131722.      V =  0.00000      Q =  0.00000    
      ---FLASH OUTLET STREAM S2      :
      KODE = 2  NTRIAL =   1  T = 353.1500  P =  131722.      V =  1.00000      Q =  0.00000    

 SENSITIVITY BLOCK S-1      ROW     4 EVALUATION BEGINS                           TIME =   1406.89
      VARY VARIABLES:  0.66000    

      UOS BLOCK B5       MODEL: RSTOIC                                            TIME =   1406.89
      KODE = 2  NTRIAL =   1  T = 853.1500  P =  101325.      V =  1.00000      Q = -253978.    

      UOS BLOCK B9       MODEL: HEATER                                            TIME =   1406.89
      KODE = 2  NTRIAL =   1  T = 703.1500  P =  101325.      V =  1.00000      Q =-1.176671E+06

      UOS BLOCK B6       MODEL: RSTOIC                                            TIME =   1406.89
      KODE = 2  NTRIAL =   1  T = 763.1500  P =  101325.      V =  1.00000      Q = -192946.    

      UOS BLOCK B10      MODEL: HEATER                                            TIME =   1406.89
      KODE = 2  NTRIAL =   1  T = 693.1500  P =  101325.      V =  1.00000      Q = -544162.    

      UOS BLOCK B7       MODEL: RSTOIC                                            TIME =   1406.89
      KODE = 2  NTRIAL =   1  T = 748.1500  P =  101325.      V =  1.00000      Q =  316282.    

      UOS BLOCK B12      MODEL: HEATER                                            TIME =   1406.89
      KODE = 2  NTRIAL =   1  T = 353.1500  P =  101325.      V =  1.00000      Q =-2.930130E+06

      UOS BLOCK B3       MODEL: RSTOIC                                            TIME =   1406.89
      KODE = 2  NTRIAL =   1  T = 353.1500  P =  131722.      V = 0.897702      Q =-2.435100E+06

      UOS BLOCK B8       MODEL: RSTOIC                                            TIME =   1406.89
      KODE = 2  NTRIAL =   1  T = 353.1500  P =  131722.      V = 0.895173      Q = -97120.7    

      UOS BLOCK B13      MODEL: SEP                                               TIME =   1406.89
      ---FLASH OUTLET STREAM S1      :
      KODE = 2  NTRIAL =   1  T = 353.1500  P =  131722.      V =  0.00000      Q =  0.00000    
      ---FLASH OUTLET STREAM S2      :
      KODE = 2  NTRIAL =   1  T = 353.1500  P =  131722.      V =  1.00000      Q =  0.00000    

 SENSITIVITY BLOCK S-1      ROW     5 EVALUATION BEGINS                           TIME =   1406.89
      VARY VARIABLES:  0.68000    

      UOS BLOCK B5       MODEL: RSTOIC                                            TIME =   1406.89
      KODE = 2  NTRIAL =   1  T = 853.1500  P =  101325.      V =  1.00000      Q = -299418.    

      UOS BLOCK B9       MODEL: HEATER                                            TIME =   1406.89
      KODE = 2  NTRIAL =   1  T = 703.1500  P =  101325.      V =  1.00000      Q =-1.176903E+06

      UOS BLOCK B6       MODEL: RSTOIC                                            TIME =   1406.89
      KODE = 2  NTRIAL =   1  T = 763.1500  P =  101325.      V =  1.00000      Q = -154113.    

      UOS BLOCK B10      MODEL: HEATER                                            TIME =   1406.89
      KODE = 2  NTRIAL =   1  T = 693.1500  P =  101325.      V =  1.00000      Q = -544177.    

      UOS BLOCK B7       MODEL: RSTOIC                                            TIME =   1406.89
      KODE = 2  NTRIAL =   1  T = 748.1500  P =  101325.      V =  1.00000      Q =  322792.    

      UOS BLOCK B12      MODEL: HEATER                                            TIME =   1406.89
      KODE = 2  NTRIAL =   1  T = 353.1500  P =  101325.      V =  1.00000      Q =-2.930131E+06

      UOS BLOCK B3       MODEL: RSTOIC                                            TIME =   1406.89
      KODE = 2  NTRIAL =   1  T = 353.1500  P =  131722.      V = 0.897689      Q =-2.435592E+06

      UOS BLOCK B8       MODEL: RSTOIC                                            TIME =   1406.89
      KODE = 2  NTRIAL =   1  T = 353.1500  P =  131722.      V = 0.895159      Q = -97133.6    

      UOS BLOCK B13      MODEL: SEP                                               TIME =   1406.89
      ---FLASH OUTLET STREAM S1      :
      KODE = 2  NTRIAL =   1  T = 353.1500  P =  131722.      V =  0.00000      Q =  0.00000    
      ---FLASH OUTLET STREAM S2      :
      KODE = 2  NTRIAL =   1  T = 353.1500  P =  131722.      V =  1.00000      Q =  0.00000    

 SENSITIVITY BLOCK S-1      ROW     6 EVALUATION BEGINS                           TIME =   1406.89
      VARY VARIABLES:  0.70000    

      UOS BLOCK B5       MODEL: RSTOIC                                            TIME =   1406.89
      KODE = 2  NTRIAL =   1  T = 853.1500  P =  101325.      V =  1.00000      Q = -344857.    

      UOS BLOCK B9       MODEL: HEATER                                            TIME =   1406.89
      KODE = 2  NTRIAL =   1  T = 703.1500  P =  101325.      V =  1.00000      Q =-1.177135E+06

      UOS BLOCK B6       MODEL: RSTOIC                                            TIME =   1406.89
      KODE = 2  NTRIAL =   1  T = 763.1500  P =  101325.      V =  1.00000      Q = -115279.    

      UOS BLOCK B10      MODEL: HEATER                                            TIME =   1406.89
      KODE = 2  NTRIAL =   1  T = 693.1500  P =  101325.      V =  1.00000      Q = -544192.    

      UOS BLOCK B7       MODEL: RSTOIC                                            TIME =   1406.89
      KODE = 2  NTRIAL =   1  T = 748.1500  P =  101325.      V =  1.00000      Q =  329303.    

      UOS BLOCK B12      MODEL: HEATER                                            TIME =   1406.89
      KODE = 2  NTRIAL =   1  T = 353.1500  P =  101325.      V =  1.00000      Q =-2.930133E+06

      UOS BLOCK B3       MODEL: RSTOIC                                            TIME =   1406.89
      KODE = 2  NTRIAL =   1  T = 353.1500  P =  131722.      V = 0.897675      Q =-2.436083E+06

      UOS BLOCK B8       MODEL: RSTOIC                                            TIME =   1406.89
      KODE = 2  NTRIAL =   1  T = 353.1500  P =  131722.      V = 0.895144      Q = -97146.6    

      UOS BLOCK B13      MODEL: SEP                                               TIME =   1406.89
      ---FLASH OUTLET STREAM S1      :
      KODE = 2  NTRIAL =   1  T = 353.1500  P =  131722.      V =  0.00000      Q =  0.00000    
      ---FLASH OUTLET STREAM S2      :
      KODE = 2  NTRIAL =   1  T = 353.1500  P =  131722.      V =  1.00000      Q =  0.00000    

 SENSITIVITY BLOCK S-1      ROW     7 EVALUATION BEGINS                           TIME =   1406.89
      VARY VARIABLES:  0.72000    

      UOS BLOCK B5       MODEL: RSTOIC                                            TIME =   1406.89
      KODE = 2  NTRIAL =   1  T = 853.1500  P =  101325.      V =  1.00000      Q = -390297.    

      UOS BLOCK B9       MODEL: HEATER                                            TIME =   1406.89
      KODE = 2  NTRIAL =   1  T = 703.1500  P =  101325.      V =  1.00000      Q =-1.177367E+06

      UOS BLOCK B6       MODEL: RSTOIC                                            TIME =   1406.89
      KODE = 2  NTRIAL =   1  T = 763.1500  P =  101325.      V =  1.00000      Q = -76444.8    

      UOS BLOCK B10      MODEL: HEATER                                            TIME =   1406.89
      KODE = 2  NTRIAL =   1  T = 693.1500  P =  101325.      V =  1.00000      Q = -544207.    

      UOS BLOCK B7       MODEL: RSTOIC                                            TIME =   1406.89
      KODE = 2  NTRIAL =   1  T = 748.1500  P =  101325.      V =  1.00000      Q =  335814.    

      UOS BLOCK B12      MODEL: HEATER                                            TIME =   1406.89
      KODE = 2  NTRIAL =   1  T = 353.1500  P =  101325.      V =  1.00000      Q =-2.930135E+06

      UOS BLOCK B3       MODEL: RSTOIC                                            TIME =   1406.89
      KODE = 2  NTRIAL =   1  T = 353.1500  P =  131722.      V = 0.897661      Q =-2.436574E+06

      UOS BLOCK B8       MODEL: RSTOIC                                            TIME =   1406.89
      KODE = 2  NTRIAL =   1  T = 353.1500  P =  131722.      V = 0.895130      Q = -97159.6    

      UOS BLOCK B13      MODEL: SEP                                               TIME =   1406.89
      ---FLASH OUTLET STREAM S1      :
      KODE = 2  NTRIAL =   1  T = 353.1500  P =  131722.      V =  0.00000      Q =  0.00000    
      ---FLASH OUTLET STREAM S2      :
      KODE = 2  NTRIAL =   1  T = 353.1500  P =  131722.      V =  1.00000      Q =  0.00000    

 SENSITIVITY BLOCK S-1      ROW     8 EVALUATION BEGINS                           TIME =   1406.89
      VARY VARIABLES:  0.74000    

      UOS BLOCK B5       MODEL: RSTOIC                                            TIME =   1406.89
      KODE = 2  NTRIAL =   1  T = 853.1500  P =  101325.      V =  1.00000      Q = -435737.    

      UOS BLOCK B9       MODEL: HEATER                                            TIME =   1406.89
      KODE = 2  NTRIAL =   1  T = 703.1500  P =  101325.      V =  1.00000      Q =-1.177599E+06

      UOS BLOCK B6       MODEL: RSTOIC                                            TIME =   1406.89
      KODE = 2  NTRIAL =   1  T = 763.1500  P =  101325.      V =  1.00000      Q = -37611.0    

      UOS BLOCK B10      MODEL: HEATER                                            TIME =   1406.89
      KODE = 2  NTRIAL =   1  T = 693.1500  P =  101325.      V =  1.00000      Q = -544223.    

      UOS BLOCK B7       MODEL: RSTOIC                                            TIME =   1406.89
      KODE = 2  NTRIAL =   1  T = 748.1500  P =  101325.      V =  1.00000      Q =  342324.    

      UOS BLOCK B12      MODEL: HEATER                                            TIME =   1406.89
      KODE = 2  NTRIAL =   1  T = 353.1500  P =  101325.      V =  1.00000      Q =-2.930137E+06

      UOS BLOCK B3       MODEL: RSTOIC                                            TIME =   1406.89
      KODE = 2  NTRIAL =   1  T = 353.1500  P =  131722.      V = 0.897647      Q =-2.437065E+06

      UOS BLOCK B8       MODEL: RSTOIC                                            TIME =   1406.89
      KODE = 2  NTRIAL =   1  T = 353.1500  P =  131722.      V = 0.895116      Q = -97172.6    

      UOS BLOCK B13      MODEL: SEP                                               TIME =   1406.89
      ---FLASH OUTLET STREAM S1      :
      KODE = 2  NTRIAL =   1  T = 353.1500  P =  131722.      V =  0.00000      Q =  0.00000    
      ---FLASH OUTLET STREAM S2      :
      KODE = 2  NTRIAL =   1  T = 353.1500  P =  131722.      V =  1.00000      Q =  0.00000    

 SENSITIVITY BLOCK S-1      ROW     9 EVALUATION BEGINS                           TIME =   1406.89
      VARY VARIABLES:  0.76000    

      UOS BLOCK B5       MODEL: RSTOIC                                            TIME =   1406.90
      KODE = 2  NTRIAL =   1  T = 853.1500  P =  101325.      V =  1.00000      Q = -481176.    

      UOS BLOCK B9       MODEL: HEATER                                            TIME =   1406.90
      KODE = 2  NTRIAL =   1  T = 703.1500  P =  101325.      V =  1.00000      Q =-1.177831E+06

      UOS BLOCK B6       MODEL: RSTOIC                                            TIME =   1406.90
      KODE = 2  NTRIAL =   1  T = 763.1500  P =  101325.      V =  1.00000      Q =  1222.83    

      UOS BLOCK B10      MODEL: HEATER                                            TIME =   1406.90
      KODE = 2  NTRIAL =   1  T = 693.1500  P =  101325.      V =  1.00000      Q = -544238.    

      UOS BLOCK B7       MODEL: RSTOIC                                            TIME =   1406.90
      KODE = 2  NTRIAL =   1  T = 748.1500  P =  101325.      V =  1.00000      Q =  348835.    

      UOS BLOCK B12      MODEL: HEATER                                            TIME =   1406.90
      KODE = 2  NTRIAL =   1  T = 353.1500  P =  101325.      V =  1.00000      Q =-2.930139E+06

      UOS BLOCK B3       MODEL: RSTOIC                                            TIME =   1406.90
      KODE = 2  NTRIAL =   1  T = 353.1500  P =  131722.      V = 0.897633      Q =-2.437557E+06

      UOS BLOCK B8       MODEL: RSTOIC                                            TIME =   1406.90
      KODE = 2  NTRIAL =   1  T = 353.1500  P =  131722.      V = 0.895102      Q = -97185.5    

      UOS BLOCK B13      MODEL: SEP                                               TIME =   1406.90
      ---FLASH OUTLET STREAM S1      :
      KODE = 2  NTRIAL =   1  T = 353.1500  P =  131722.      V =  0.00000      Q =  0.00000    
      ---FLASH OUTLET STREAM S2      :
      KODE = 2  NTRIAL =   1  T = 353.1500  P =  131722.      V =  1.00000      Q =  0.00000    

 SENSITIVITY BLOCK S-1      ROW    10 EVALUATION BEGINS                           TIME =   1406.90
      VARY VARIABLES:  0.78000    

      UOS BLOCK B5       MODEL: RSTOIC                                            TIME =   1406.90
      KODE = 2  NTRIAL =   1  T = 853.1500  P =  101325.      V =  1.00000      Q = -526616.    

      UOS BLOCK B9       MODEL: HEATER                                            TIME =   1406.90
      KODE = 2  NTRIAL =   1  T = 703.1500  P =  101325.      V =  1.00000      Q =-1.178063E+06

      UOS BLOCK B6       MODEL: RSTOIC                                            TIME =   1406.90
      KODE = 2  NTRIAL =   1  T = 763.1500  P =  101325.      V =  1.00000      Q =  40056.7    

      UOS BLOCK B10      MODEL: HEATER                                            TIME =   1406.90
      KODE = 2  NTRIAL =   1  T = 693.1500  P =  101325.      V =  1.00000      Q = -544253.    

      UOS BLOCK B7       MODEL: RSTOIC                                            TIME =   1406.90
      KODE = 2  NTRIAL =   1  T = 748.1500  P =  101325.      V =  1.00000      Q =  355346.    

      UOS BLOCK B12      MODEL: HEATER                                            TIME =   1406.90
      KODE = 2  NTRIAL =   1  T = 353.1500  P =  101325.      V =  1.00000      Q =-2.930140E+06

      UOS BLOCK B3       MODEL: RSTOIC                                            TIME =   1406.91
      KODE = 2  NTRIAL =   1  T = 353.1500  P =  131722.      V = 0.897619      Q =-2.438048E+06

      UOS BLOCK B8       MODEL: RSTOIC                                            TIME =   1406.91
      KODE = 2  NTRIAL =   1  T = 353.1500  P =  131722.      V = 0.895087      Q = -97198.5    

      UOS BLOCK B13      MODEL: SEP                                               TIME =   1406.91
      ---FLASH OUTLET STREAM S1      :
      KODE = 2  NTRIAL =   1  T = 353.1500  P =  131722.      V =  0.00000      Q =  0.00000    
      ---FLASH OUTLET STREAM S2      :
      KODE = 2  NTRIAL =   1  T = 353.1500  P =  131722.      V =  1.00000      Q =  0.00000    

 SENSITIVITY BLOCK S-1      ROW    11 EVALUATION BEGINS                           TIME =   1406.91
      VARY VARIABLES:  0.80000    

      UOS BLOCK B5       MODEL: RSTOIC                                            TIME =   1406.91
      KODE = 2  NTRIAL =   1  T = 853.1500  P =  101325.      V =  1.00000      Q = -572056.    

      UOS BLOCK B9       MODEL: HEATER                                            TIME =   1406.91
      KODE = 2  NTRIAL =   1  T = 703.1500  P =  101325.      V =  1.00000      Q =-1.178294E+06

      UOS BLOCK B6       MODEL: RSTOIC                                            TIME =   1406.91
      KODE = 2  NTRIAL =   1  T = 763.1500  P =  101325.      V =  1.00000      Q =  78890.5    

      UOS BLOCK B10      MODEL: HEATER                                            TIME =   1406.91
      KODE = 2  NTRIAL =   1  T = 693.1500  P =  101325.      V =  1.00000      Q = -544268.    

      UOS BLOCK B7       MODEL: RSTOIC                                            TIME =   1406.91
      KODE = 2  NTRIAL =   1  T = 748.1500  P =  101325.      V =  1.00000      Q =  361857.    

      UOS BLOCK B12      MODEL: HEATER                                            TIME =   1406.91
      KODE = 2  NTRIAL =   1  T = 353.1500  P =  101325.      V =  1.00000      Q =-2.930142E+06

      UOS BLOCK B3       MODEL: RSTOIC                                            TIME =   1406.91
      KODE = 2  NTRIAL =   1  T = 353.1500  P =  131722.      V = 0.897605      Q =-2.438539E+06

      UOS BLOCK B8       MODEL: RSTOIC                                            TIME =   1406.91
      KODE = 2  NTRIAL =   1  T = 353.1500  P =  131722.      V = 0.895073      Q = -97211.5    

      UOS BLOCK B13      MODEL: SEP                                               TIME =   1406.91
      ---FLASH OUTLET STREAM S1      :
      KODE = 2  NTRIAL =   1  T = 353.1500  P =  131722.      V =  0.00000      Q =  0.00000    
      ---FLASH OUTLET STREAM S2      :
      KODE = 2  NTRIAL =   1  T = 353.1500  P =  131722.      V =  1.00000      Q =  0.00000    

 SENSITIVITY BLOCK S-1      ROW    12 EVALUATION BEGINS                           TIME =   1406.91
      VARY VARIABLES:  0.82000    

      UOS BLOCK B5       MODEL: RSTOIC                                            TIME =   1406.91
      KODE = 2  NTRIAL =   1  T = 853.1500  P =  101325.      V =  1.00000      Q = -617495.    

      UOS BLOCK B9       MODEL: HEATER                                            TIME =   1406.91
      KODE = 2  NTRIAL =   1  T = 703.1500  P =  101325.      V =  1.00000      Q =-1.178526E+06

      UOS BLOCK B6       MODEL: RSTOIC                                            TIME =   1406.91
      KODE = 2  NTRIAL =   1  T = 763.1500  P =  101325.      V =  1.00000      Q =  117724.    

      UOS BLOCK B10      MODEL: HEATER                                            TIME =   1406.91
      KODE = 2  NTRIAL =   1  T = 693.1500  P =  101325.      V =  1.00000      Q = -544283.    

      UOS BLOCK B7       MODEL: RSTOIC                                            TIME =   1406.91
      KODE = 2  NTRIAL =   1  T = 748.1500  P =  101325.      V =  1.00000      Q =  368367.    

      UOS BLOCK B12      MODEL: HEATER                                            TIME =   1406.91
      KODE = 2  NTRIAL =   1  T = 353.1500  P =  101325.      V =  1.00000      Q =-2.930144E+06

      UOS BLOCK B3       MODEL: RSTOIC                                            TIME =   1406.91
      KODE = 2  NTRIAL =   1  T = 353.1500  P =  131722.      V = 0.897591      Q =-2.439030E+06

      UOS BLOCK B8       MODEL: RSTOIC                                            TIME =   1406.91
      KODE = 2  NTRIAL =   1  T = 353.1500  P =  131722.      V = 0.895059      Q = -97224.5    

      UOS BLOCK B13      MODEL: SEP                                               TIME =   1406.91
      ---FLASH OUTLET STREAM S1      :
      KODE = 2  NTRIAL =   1  T = 353.1500  P =  131722.      V =  0.00000      Q =  0.00000    
      ---FLASH OUTLET STREAM S2      :
      KODE = 2  NTRIAL =   1  T = 353.1500  P =  131722.      V =  1.00000      Q =  0.00000    

 SENSITIVITY BLOCK S-1      ROW    13 EVALUATION BEGINS                           TIME =   1406.91
      VARY VARIABLES:  0.84000    

      UOS BLOCK B5       MODEL: RSTOIC                                            TIME =   1406.91
      KODE = 2  NTRIAL =   1  T = 853.1500  P =  101325.      V =  1.00000      Q = -662935.    

      UOS BLOCK B9       MODEL: HEATER                                            TIME =   1406.91
      KODE = 2  NTRIAL =   1  T = 703.1500  P =  101325.      V =  1.00000      Q =-1.178758E+06

      UOS BLOCK B6       MODEL: RSTOIC                                            TIME =   1406.91
      KODE = 2  NTRIAL =   1  T = 763.1500  P =  101325.      V =  1.00000      Q =  156558.    

      UOS BLOCK B10      MODEL: HEATER                                            TIME =   1406.91
      KODE = 2  NTRIAL =   1  T = 693.1500  P =  101325.      V =  1.00000      Q = -544298.    

      UOS BLOCK B7       MODEL: RSTOIC                                            TIME =   1406.91
      KODE = 2  NTRIAL =   1  T = 748.1500  P =  101325.      V =  1.00000      Q =  374878.    

      UOS BLOCK B12      MODEL: HEATER                                            TIME =   1406.91
      KODE = 2  NTRIAL =   1  T = 353.1500  P =  101325.      V =  1.00000      Q =-2.930146E+06

      UOS BLOCK B3       MODEL: RSTOIC                                            TIME =   1406.91
      KODE = 2  NTRIAL =   1  T = 353.1500  P =  131722.      V = 0.897577      Q =-2.439521E+06

      UOS BLOCK B8       MODEL: RSTOIC                                            TIME =   1406.91
      KODE = 2  NTRIAL =   1  T = 353.1500  P =  131722.      V = 0.895045      Q = -97237.4    

      UOS BLOCK B13      MODEL: SEP                                               TIME =   1406.91
      ---FLASH OUTLET STREAM S1      :
      KODE = 2  NTRIAL =   1  T = 353.1500  P =  131722.      V =  0.00000      Q =  0.00000    
      ---FLASH OUTLET STREAM S2      :
      KODE = 2  NTRIAL =   1  T = 353.1500  P =  131722.      V =  1.00000      Q =  0.00000    

 SENSITIVITY BLOCK S-1      ROW    14 EVALUATION BEGINS                           TIME =   1406.91
      VARY VARIABLES:  0.86000    

      UOS BLOCK B5       MODEL: RSTOIC                                            TIME =   1406.91
      KODE = 2  NTRIAL =   1  T = 853.1500  P =  101325.      V =  1.00000      Q = -708374.    

      UOS BLOCK B9       MODEL: HEATER                                            TIME =   1406.91
      KODE = 2  NTRIAL =   1  T = 703.1500  P =  101325.      V =  1.00000      Q =-1.178990E+06

      UOS BLOCK B6       MODEL: RSTOIC                                            TIME =   1406.91
      KODE = 2  NTRIAL =   1  T = 763.1500  P =  101325.      V =  1.00000      Q =  195392.    

      UOS BLOCK B10      MODEL: HEATER                                            TIME =   1406.91
      KODE = 2  NTRIAL =   1  T = 693.1500  P =  101325.      V =  1.00000      Q = -544313.    

      UOS BLOCK B7       MODEL: RSTOIC                                            TIME =   1406.91
      KODE = 2  NTRIAL =   1  T = 748.1500  P =  101325.      V =  1.00000      Q =  381389.    

      UOS BLOCK B12      MODEL: HEATER                                            TIME =   1406.91
      KODE = 2  NTRIAL =   1  T = 353.1500  P =  101325.      V =  1.00000      Q =-2.930148E+06

      UOS BLOCK B3       MODEL: RSTOIC                                            TIME =   1406.91
      KODE = 2  NTRIAL =   1  T = 353.1500  P =  131722.      V = 0.897563      Q =-2.440013E+06

      UOS BLOCK B8       MODEL: RSTOIC                                            TIME =   1406.91
      KODE = 2  NTRIAL =   1  T = 353.1500  P =  131722.      V = 0.895030      Q = -97250.4    

      UOS BLOCK B13      MODEL: SEP                                               TIME =   1406.91
      ---FLASH OUTLET STREAM S1      :
      KODE = 2  NTRIAL =   1  T = 353.1500  P =  131722.      V =  0.00000      Q =  0.00000    
      ---FLASH OUTLET STREAM S2      :
      KODE = 2  NTRIAL =   1  T = 353.1500  P =  131722.      V =  1.00000      Q =  0.00000    

 SENSITIVITY BLOCK S-1      ROW    15 EVALUATION BEGINS                           TIME =   1406.91
      VARY VARIABLES:  0.88000    

      UOS BLOCK B5       MODEL: RSTOIC                                            TIME =   1406.91
      KODE = 2  NTRIAL =   1  T = 853.1500  P =  101325.      V =  1.00000      Q = -753814.    

      UOS BLOCK B9       MODEL: HEATER                                            TIME =   1406.91
      KODE = 2  NTRIAL =   1  T = 703.1500  P =  101325.      V =  1.00000      Q =-1.179222E+06

      UOS BLOCK B6       MODEL: RSTOIC                                            TIME =   1406.91
      KODE = 2  NTRIAL =   1  T = 763.1500  P =  101325.      V =  1.00000      Q =  234226.    

      UOS BLOCK B10      MODEL: HEATER                                            TIME =   1406.91
      KODE = 2  NTRIAL =   1  T = 693.1500  P =  101325.      V =  1.00000      Q = -544328.    

      UOS BLOCK B7       MODEL: RSTOIC                                            TIME =   1406.91
      KODE = 2  NTRIAL =   1  T = 748.1500  P =  101325.      V =  1.00000      Q =  387899.    

      UOS BLOCK B12      MODEL: HEATER                                            TIME =   1406.91
      KODE = 2  NTRIAL =   1  T = 353.1500  P =  101325.      V =  1.00000      Q =-2.930149E+06

      UOS BLOCK B3       MODEL: RSTOIC                                            TIME =   1406.91
      KODE = 2  NTRIAL =   1  T = 353.1500  P =  131722.      V = 0.897549      Q =-2.440504E+06

      UOS BLOCK B8       MODEL: RSTOIC                                            TIME =   1406.91
      KODE = 2  NTRIAL =   1  T = 353.1500  P =  131722.      V = 0.895016      Q = -97263.4    

      UOS BLOCK B13      MODEL: SEP                                               TIME =   1406.91
      ---FLASH OUTLET STREAM S1      :
      KODE = 2  NTRIAL =   1  T = 353.1500  P =  131722.      V =  0.00000      Q =  0.00000    
      ---FLASH OUTLET STREAM S2      :
      KODE = 2  NTRIAL =   1  T = 353.1500  P =  131722.      V =  1.00000      Q =  0.00000    

 SENSITIVITY BLOCK S-1      ROW    16 EVALUATION BEGINS                           TIME =   1406.91
      VARY VARIABLES:  0.90000    

      UOS BLOCK B5       MODEL: RSTOIC                                            TIME =   1406.91
      KODE = 2  NTRIAL =   1  T = 853.1500  P =  101325.      V =  1.00000      Q = -799254.    

      UOS BLOCK B9       MODEL: HEATER                                            TIME =   1406.91
      KODE = 2  NTRIAL =   1  T = 703.1500  P =  101325.      V =  1.00000      Q =-1.179454E+06

      UOS BLOCK B6       MODEL: RSTOIC                                            TIME =   1406.91
      KODE = 2  NTRIAL =   1  T = 763.1500  P =  101325.      V =  1.00000      Q =  273060.    

      UOS BLOCK B10      MODEL: HEATER                                            TIME =   1406.91
      KODE = 2  NTRIAL =   1  T = 693.1500  P =  101325.      V =  1.00000      Q = -544343.    

      UOS BLOCK B7       MODEL: RSTOIC                                            TIME =   1406.91
      KODE = 2  NTRIAL =   1  T = 748.1500  P =  101325.      V =  1.00000      Q =  394410.    

      UOS BLOCK B12      MODEL: HEATER                                            TIME =   1406.91
      KODE = 2  NTRIAL =   1  T = 353.1500  P =  101325.      V =  1.00000      Q =-2.930151E+06

      UOS BLOCK B3       MODEL: RSTOIC                                            TIME =   1406.91
      KODE = 2  NTRIAL =   1  T = 353.1500  P =  131722.      V = 0.897535      Q =-2.440995E+06

      UOS BLOCK B8       MODEL: RSTOIC                                            TIME =   1406.91
      KODE = 2  NTRIAL =   1  T = 353.1500  P =  131722.      V = 0.895002      Q = -97276.3    

      UOS BLOCK B13      MODEL: SEP                                               TIME =   1406.91
      ---FLASH OUTLET STREAM S1      :
      KODE = 2  NTRIAL =   1  T = 353.1500  P =  131722.      V =  0.00000      Q =  0.00000    
      ---FLASH OUTLET STREAM S2      :
      KODE = 2  NTRIAL =   1  T = 353.1500  P =  131722.      V =  1.00000      Q =  0.00000    

 SENSITIVITY BLOCK S-1      ROW    17 EVALUATION BEGINS                           TIME =   1406.91
      VARY VARIABLES:  0.92000    

      UOS BLOCK B5       MODEL: RSTOIC                                            TIME =   1406.91
      KODE = 2  NTRIAL =   1  T = 853.1500  P =  101325.      V =  1.00000      Q = -844693.    

      UOS BLOCK B9       MODEL: HEATER                                            TIME =   1406.91
      KODE = 2  NTRIAL =   1  T = 703.1500  P =  101325.      V =  1.00000      Q =-1.179686E+06

      UOS BLOCK B6       MODEL: RSTOIC                                            TIME =   1406.91
      KODE = 2  NTRIAL =   1  T = 763.1500  P =  101325.      V =  1.00000      Q =  311894.    

      UOS BLOCK B10      MODEL: HEATER                                            TIME =   1406.91
      KODE = 2  NTRIAL =   1  T = 693.1500  P =  101325.      V =  1.00000      Q = -544358.    

      UOS BLOCK B7       MODEL: RSTOIC                                            TIME =   1406.91
      KODE = 2  NTRIAL =   1  T = 748.1500  P =  101325.      V =  1.00000      Q =  400921.    

      UOS BLOCK B12      MODEL: HEATER                                            TIME =   1406.91
      KODE = 2  NTRIAL =   1  T = 353.1500  P =  101325.      V =  1.00000      Q =-2.930153E+06

      UOS BLOCK B3       MODEL: RSTOIC                                            TIME =   1406.91
      KODE = 2  NTRIAL =   1  T = 353.1500  P =  131722.      V = 0.897521      Q =-2.441486E+06

      UOS BLOCK B8       MODEL: RSTOIC                                            TIME =   1406.91
      KODE = 2  NTRIAL =   1  T = 353.1500  P =  131722.      V = 0.894988      Q = -97289.3    

      UOS BLOCK B13      MODEL: SEP                                               TIME =   1406.91
      ---FLASH OUTLET STREAM S1      :
      KODE = 2  NTRIAL =   1  T = 353.1500  P =  131722.      V =  0.00000      Q =  0.00000    
      ---FLASH OUTLET STREAM S2      :
      KODE = 2  NTRIAL =   1  T = 353.1500  P =  131722.      V =  1.00000      Q =  0.00000    

 SENSITIVITY BLOCK S-1      ROW    18 EVALUATION BEGINS                           TIME =   1406.91
      VARY VARIABLES:  0.94000    

      UOS BLOCK B5       MODEL: RSTOIC                                            TIME =   1406.91
      KODE = 2  NTRIAL =   1  T = 853.1500  P =  101325.      V =  1.00000      Q = -890133.    

      UOS BLOCK B9       MODEL: HEATER                                            TIME =   1406.91
      KODE = 2  NTRIAL =   1  T = 703.1500  P =  101325.      V =  1.00000      Q =-1.179918E+06

      UOS BLOCK B6       MODEL: RSTOIC                                            TIME =   1406.91
      KODE = 2  NTRIAL =   1  T = 763.1500  P =  101325.      V =  1.00000      Q =  350727.    

      UOS BLOCK B10      MODEL: HEATER                                            TIME =   1406.91
      KODE = 2  NTRIAL =   1  T = 693.1500  P =  101325.      V =  1.00000      Q = -544373.    

      UOS BLOCK B7       MODEL: RSTOIC                                            TIME =   1406.91
      KODE = 2  NTRIAL =   1  T = 748.1500  P =  101325.      V =  1.00000      Q =  407432.    

      UOS BLOCK B12      MODEL: HEATER                                            TIME =   1406.91
      KODE = 2  NTRIAL =   1  T = 353.1500  P =  101325.      V =  1.00000      Q =-2.930155E+06

      UOS BLOCK B3       MODEL: RSTOIC                                            TIME =   1406.91
      KODE = 2  NTRIAL =   1  T = 353.1500  P =  131722.      V = 0.897507      Q =-2.441977E+06

      UOS BLOCK B8       MODEL: RSTOIC                                            TIME =   1406.91
[...]
      A FACTOR OF "0.4131470"                                                   
      KODE = 2  NTRIAL =   1  T = 353.1500  P =  131722.      V = 0.957146      Q =-1.022847E+06

      UOS BLOCK B8       MODEL: RSTOIC                                            TIME =   2920.79

  *   WARNING WHILE EXECUTING UNIT OPERATIONS BLOCK: "B8" (MODEL: "RSTOIC")     
                                                               (URE07.2)        
      REACTION NO. "1" IS DROPPED BECAUSE                                       
      REACTANT "WATER" HAS ZERO INLET FLOW RATE                                 
      AND ITS CALCULATED OUTLET FLOW RATE IS LESS THAN ZERO.                    

  *   WARNING WHILE EXECUTING UNIT OPERATIONS BLOCK: "B8" (MODEL: "RSTOIC")     
                                                               (URE07.5)        
      NO REACTIONS ARE ACTIVE - PROCEEDING WITH OUTLET FLASH                    
      KODE = 2  NTRIAL =   1  T = 353.1500  P =  131722.      V = 0.957146      Q =-3.282870E-09

 SENSITIVITY BLOCK S-1      ROW     3 EVALUATION BEGINS                           TIME =   2920.79
      VARY VARIABLES:  0.19444    

      UOS BLOCK B3       MODEL: RSTOIC                                            TIME =   2920.79

  *   WARNING WHILE EXECUTING UNIT OPERATIONS BLOCK: "B3" (MODEL: "RSTOIC")     
                                                               (URE07.3)        
      COMPONENT "WATER" HAS ZERO FLOWRATE IN THE OUTLET STREAM.                 
      FRACTIONAL CONVERSION HAS BEEN MODIFIED BY                                
      A FACTOR OF "0.4820048"                                                   
      KODE = 2  NTRIAL =   1  T = 353.1500  P =  131722.      V = 0.950108      Q =-1.192534E+06

      UOS BLOCK B8       MODEL: RSTOIC                                            TIME =   2920.79

  *   WARNING WHILE EXECUTING UNIT OPERATIONS BLOCK: "B8" (MODEL: "RSTOIC")     
                                                               (URE07.2)        
      REACTION NO. "1" IS DROPPED BECAUSE                                       
      REACTANT "WATER" HAS ZERO INLET FLOW RATE                                 
      AND ITS CALCULATED OUTLET FLOW RATE IS LESS THAN ZERO.                    

  *   WARNING WHILE EXECUTING UNIT OPERATIONS BLOCK: "B8" (MODEL: "RSTOIC")     
                                                               (URE07.5)        
      NO REACTIONS ARE ACTIVE - PROCEEDING WITH OUTLET FLASH                    
      KODE = 2  NTRIAL =   1  T = 353.1500  P =  131722.      V = 0.950108      Q =-2.462152E-09

 SENSITIVITY BLOCK S-1      ROW     4 EVALUATION BEGINS                           TIME =   2920.79
      VARY VARIABLES:  0.22222    

      UOS BLOCK B3       MODEL: RSTOIC                                            TIME =   2920.79

  *   WARNING WHILE EXECUTING UNIT OPERATIONS BLOCK: "B3" (MODEL: "RSTOIC")     
                                                               (URE07.3)        
      COMPONENT "WATER" HAS ZERO FLOWRATE IN THE OUTLET STREAM.                 
      FRACTIONAL CONVERSION HAS BEEN MODIFIED BY                                
      A FACTOR OF "0.5508627"                                                   
      KODE = 2  NTRIAL =   1  T = 353.1500  P =  131722.      V = 0.943100      Q =-1.361982E+06

      UOS BLOCK B8       MODEL: RSTOIC                                            TIME =   2920.79

  *   WARNING WHILE EXECUTING UNIT OPERATIONS BLOCK: "B8" (MODEL: "RSTOIC")     
                                                               (URE07.2)        
      REACTION NO. "1" IS DROPPED BECAUSE                                       
      REACTANT "WATER" HAS ZERO INLET FLOW RATE                                 
      AND ITS CALCULATED OUTLET FLOW RATE IS LESS THAN ZERO.                    

  *   WARNING WHILE EXECUTING UNIT OPERATIONS BLOCK: "B8" (MODEL: "RSTOIC")     
                                                               (URE07.5)        
      NO REACTIONS ARE ACTIVE - PROCEEDING WITH OUTLET FLASH                    
      KODE = 2  NTRIAL =   1  T = 353.1500  P =  131722.      V = 0.943100      Q = 8.207174E-10

 SENSITIVITY BLOCK S-1      ROW     5 EVALUATION BEGINS                           TIME =   2920.79
      VARY VARIABLES:  0.25000    

      UOS BLOCK B3       MODEL: RSTOIC                                            TIME =   2920.79

  *   WARNING WHILE EXECUTING UNIT OPERATIONS BLOCK: "B3" (MODEL: "RSTOIC")     
                                                               (URE07.3)        
      COMPONENT "WATER" HAS ZERO FLOWRATE IN THE OUTLET STREAM.                 
      FRACTIONAL CONVERSION HAS BEEN MODIFIED BY                                
      A FACTOR OF "0.6197205"                                                   

  *   WARNING WHILE EXECUTING UNIT OPERATIONS BLOCK: "B3" (MODEL: "RSTOIC")     
                                                               (URE07.3)        
      COMPONENT "WATER" HAS ZERO FLOWRATE IN THE OUTLET STREAM.                 
      FRACTIONAL CONVERSION HAS BEEN MODIFIED BY                                
      A FACTOR OF "0.6197205"                                                   
      KODE = 2  NTRIAL =   1  T = 353.1500  P =  131722.      V = 0.936124      Q =-1.531188E+06

      UOS BLOCK B8       MODEL: RSTOIC                                            TIME =   2920.79

  *   WARNING WHILE EXECUTING UNIT OPERATIONS BLOCK: "B8" (MODEL: "RSTOIC")     
                                                               (URE07.3)        
      COMPONENT "WATER" HAS ZERO FLOWRATE IN THE OUTLET STREAM.                 
      FRACTIONAL CONVERSION HAS BEEN MODIFIED BY                                
      A FACTOR OF "0.1942203E-15"                                               
      KODE = 2  NTRIAL =   1  T = 353.1500  P =  131722.      V = 0.936124      Q = 8.207174E-10

 SENSITIVITY BLOCK S-1      ROW     6 EVALUATION BEGINS                           TIME =   2920.79
      VARY VARIABLES:  0.27778    

      UOS BLOCK B3       MODEL: RSTOIC                                            TIME =   2920.79

  *   WARNING WHILE EXECUTING UNIT OPERATIONS BLOCK: "B3" (MODEL: "RSTOIC")     
                                                               (URE07.3)        
      COMPONENT "WATER" HAS ZERO FLOWRATE IN THE OUTLET STREAM.                 
      FRACTIONAL CONVERSION HAS BEEN MODIFIED BY                                
      A FACTOR OF "0.6885783"                                                   
      KODE = 2  NTRIAL =   1  T = 353.1500  P =  131722.      V = 0.929179      Q =-1.700151E+06

      UOS BLOCK B8       MODEL: RSTOIC                                            TIME =   2920.79

  *   WARNING WHILE EXECUTING UNIT OPERATIONS BLOCK: "B8" (MODEL: "RSTOIC")     
                                                               (URE07.2)        
      REACTION NO. "1" IS DROPPED BECAUSE                                       
      REACTANT "WATER" HAS ZERO INLET FLOW RATE                                 
      AND ITS CALCULATED OUTLET FLOW RATE IS LESS THAN ZERO.                    

  *   WARNING WHILE EXECUTING UNIT OPERATIONS BLOCK: "B8" (MODEL: "RSTOIC")     
                                                               (URE07.5)        
      NO REACTIONS ARE ACTIVE - PROCEEDING WITH OUTLET FLASH                    
      KODE = 2  NTRIAL =   1  T = 353.1500  P =  131722.      V = 0.929179      Q =-1.231076E-09

 SENSITIVITY BLOCK S-1      ROW     7 EVALUATION BEGINS                           TIME =   2920.79
      VARY VARIABLES:  0.30556    

      UOS BLOCK B3       MODEL: RSTOIC                                            TIME =   2920.79

  *   WARNING WHILE EXECUTING UNIT OPERATIONS BLOCK: "B3" (MODEL: "RSTOIC")     
                                                               (URE07.3)        
      COMPONENT "WATER" HAS ZERO FLOWRATE IN THE OUTLET STREAM.                 
      FRACTIONAL CONVERSION HAS BEEN MODIFIED BY                                
      A FACTOR OF "0.7574362"                                                   
      KODE = 2  NTRIAL =   1  T = 353.1500  P =  131722.      V = 0.922266      Q =-1.868867E+06

      UOS BLOCK B8       MODEL: RSTOIC                                            TIME =   2920.79

  *   WARNING WHILE EXECUTING UNIT OPERATIONS BLOCK: "B8" (MODEL: "RSTOIC")     
                                                               (URE07.2)        
      REACTION NO. "1" IS DROPPED BECAUSE                                       
      REACTANT "WATER" HAS ZERO INLET FLOW RATE                                 
      AND ITS CALCULATED OUTLET FLOW RATE IS LESS THAN ZERO.                    

  *   WARNING WHILE EXECUTING UNIT OPERATIONS BLOCK: "B8" (MODEL: "RSTOIC")     
                                                               (URE07.5)        
      NO REACTIONS ARE ACTIVE - PROCEEDING WITH OUTLET FLASH                    
      KODE = 2  NTRIAL =   1  T = 353.1500  P =  131722.      V = 0.922266      Q =-4.103587E-10

 SENSITIVITY BLOCK S-1      ROW     8 EVALUATION BEGINS                           TIME =   2920.79
      VARY VARIABLES:  0.33333    

      UOS BLOCK B3       MODEL: RSTOIC                                            TIME =   2920.79

  *   WARNING WHILE EXECUTING UNIT OPERATIONS BLOCK: "B3" (MODEL: "RSTOIC")     
                                                               (URE07.3)        
      COMPONENT "WATER" HAS ZERO FLOWRATE IN THE OUTLET STREAM.                 
      FRACTIONAL CONVERSION HAS BEEN MODIFIED BY                                
      A FACTOR OF "0.8262940"                                                   

  *   WARNING WHILE EXECUTING UNIT OPERATIONS BLOCK: "B3" (MODEL: "RSTOIC")     
                                                               (URE07.3)        
      COMPONENT "WATER" HAS ZERO FLOWRATE IN THE OUTLET STREAM.                 
      FRACTIONAL CONVERSION HAS BEEN MODIFIED BY                                
      A FACTOR OF "0.8262940"                                                   
      KODE = 2  NTRIAL =   1  T = 353.1500  P =  131722.      V = 0.915386      Q =-2.037336E+06

      UOS BLOCK B8       MODEL: RSTOIC                                            TIME =   2920.79

  *   WARNING WHILE EXECUTING UNIT OPERATIONS BLOCK: "B8" (MODEL: "RSTOIC")     
                                                               (URE07.3)        
      COMPONENT "WATER" HAS ZERO FLOWRATE IN THE OUTLET STREAM.                 
      FRACTIONAL CONVERSION HAS BEEN MODIFIED BY                                
      A FACTOR OF "0.7805630E-15"                                               
      KODE = 2  NTRIAL =   1  T = 353.1500  P =  131722.      V = 0.915386      Q = 3.488049E-09

 SENSITIVITY BLOCK S-1      ROW     9 EVALUATION BEGINS                           TIME =   2920.79
      VARY VARIABLES:  0.36111    

      UOS BLOCK B3       MODEL: RSTOIC                                            TIME =   2920.79

  *   WARNING WHILE EXECUTING UNIT OPERATIONS BLOCK: "B3" (MODEL: "RSTOIC")     
                                                               (URE07.3)        
      COMPONENT "WATER" HAS ZERO FLOWRATE IN THE OUTLET STREAM.                 
      FRACTIONAL CONVERSION HAS BEEN MODIFIED BY                                
      A FACTOR OF "0.8951518"                                                   
      KODE = 2  NTRIAL =   1  T = 353.1500  P =  131722.      V = 0.908537      Q =-2.205555E+06

      UOS BLOCK B8       MODEL: RSTOIC                                            TIME =   2920.79

  *   WARNING WHILE EXECUTING UNIT OPERATIONS BLOCK: "B8" (MODEL: "RSTOIC")     
                                                               (URE07.2)        
      REACTION NO. "1" IS DROPPED BECAUSE                                       
      REACTANT "WATER" HAS ZERO INLET FLOW RATE                                 
      AND ITS CALCULATED OUTLET FLOW RATE IS LESS THAN ZERO.                    

  *   WARNING WHILE EXECUTING UNIT OPERATIONS BLOCK: "B8" (MODEL: "RSTOIC")     
                                                               (URE07.5)        
      NO REACTIONS ARE ACTIVE - PROCEEDING WITH OUTLET FLASH                    
      KODE = 2  NTRIAL =   1  T = 353.1500  P =  131722.      V = 0.908537      Q =-3.180280E-09

 SENSITIVITY BLOCK S-1      ROW    10 EVALUATION BEGINS                           TIME =   2920.79
      VARY VARIABLES:  0.38889    

      UOS BLOCK B3       MODEL: RSTOIC                                            TIME =   2920.79

  *   WARNING WHILE EXECUTING UNIT OPERATIONS BLOCK: "B3" (MODEL: "RSTOIC")     
                                                               (URE07.3)        
      COMPONENT "WATER" HAS ZERO FLOWRATE IN THE OUTLET STREAM.                 
      FRACTIONAL CONVERSION HAS BEEN MODIFIED BY                                
      A FACTOR OF "0.9640097"                                                   

  *   WARNING WHILE EXECUTING UNIT OPERATIONS BLOCK: "B3" (MODEL: "RSTOIC")     
                                                               (URE07.3)        
      COMPONENT "WATER" HAS ZERO FLOWRATE IN THE OUTLET STREAM.                 
      FRACTIONAL CONVERSION HAS BEEN MODIFIED BY                                
      A FACTOR OF "0.9640097"                                                   
      KODE = 2  NTRIAL =   1  T = 353.1500  P =  131722.      V = 0.901722      Q =-2.373522E+06

      UOS BLOCK B8       MODEL: RSTOIC                                            TIME =   2920.79

  *   WARNING WHILE EXECUTING UNIT OPERATIONS BLOCK: "B8" (MODEL: "RSTOIC")     
                                                               (URE07.2)        
      REACTION NO. "1" IS DROPPED BECAUSE                                       
      REACTANT "WATER" HAS ZERO INLET FLOW RATE                                 
      AND ITS CALCULATED OUTLET FLOW RATE IS LESS THAN ZERO.                    

  *   WARNING WHILE EXECUTING UNIT OPERATIONS BLOCK: "B8" (MODEL: "RSTOIC")     
                                                               (URE07.5)        
      NO REACTIONS ARE ACTIVE - PROCEEDING WITH OUTLET FLASH                    
      KODE = 2  NTRIAL =   1  T = 353.1500  P =  131722.      V = 0.901722      Q =-1.436255E-09

 SENSITIVITY BLOCK S-1      ROW    11 EVALUATION BEGINS                           TIME =   2920.79
      VARY VARIABLES:  0.41667    

      UOS BLOCK B3       MODEL: RSTOIC                                            TIME =   2920.79
      KODE = 2  NTRIAL =   1  T = 353.1500  P =  131722.      V = 0.897709      Q =-2.434855E+06

      UOS BLOCK B8       MODEL: RSTOIC                                            TIME =   2920.79
      KODE = 2  NTRIAL =   1  T = 353.1500  P =  131722.      V = 0.895180      Q = -97114.2    

 SENSITIVITY BLOCK S-1      ROW    12 EVALUATION BEGINS                           TIME =   2920.79
      VARY VARIABLES:  0.44444    

      UOS BLOCK B3       MODEL: RSTOIC                                            TIME =   2920.79
      KODE = 2  NTRIAL =   1  T = 353.1500  P =  131722.      V = 0.896729      Q =-2.379819E+06

      UOS BLOCK B8       MODEL: RSTOIC                                            TIME =   2920.80
      KODE = 2  NTRIAL =   1  T = 353.1500  P =  131722.      V = 0.894186      Q = -97374.3    

 SENSITIVITY BLOCK S-1      ROW    13 EVALUATION BEGINS                           TIME =   2920.80
      VARY VARIABLES:  0.47222    

      UOS BLOCK B3       MODEL: RSTOIC                                            TIME =   2920.80
      KODE = 2  NTRIAL =   1  T = 353.1500  P =  131722.      V = 0.895735      Q =-2.325036E+06

      UOS BLOCK B8       MODEL: RSTOIC                                            TIME =   2920.80
      KODE = 2  NTRIAL =   1  T = 353.1500  P =  131722.      V = 0.893179      Q = -97635.1    

 SENSITIVITY BLOCK S-1      ROW    14 EVALUATION BEGINS                           TIME =   2920.80
      VARY VARIABLES:  0.50000    

      UOS BLOCK B3       MODEL: RSTOIC                                            TIME =   2920.80
      KODE = 2  NTRIAL =   1  T = 353.1500  P =  131722.      V = 0.894727      Q =-2.270511E+06

      UOS BLOCK B8       MODEL: RSTOIC                                            TIME =   2920.80
      KODE = 2  NTRIAL =   1  T = 353.1500  P =  131722.      V = 0.892158      Q = -97896.5    

 SENSITIVITY BLOCK S-1      ROW    15 EVALUATION BEGINS                           TIME =   2920.80
      VARY VARIABLES:  0.52778    

      UOS BLOCK B3       MODEL: RSTOIC                                            TIME =   2920.80
      KODE = 2  NTRIAL =   1  T = 353.1500  P =  131722.      V = 0.893705      Q =-2.216248E+06

      UOS BLOCK B8       MODEL: RSTOIC                                            TIME =   2920.80
      KODE = 2  NTRIAL =   1  T = 353.1500  P =  131722.      V = 0.891122      Q = -98158.4    

 SENSITIVITY BLOCK S-1      ROW    16 EVALUATION BEGINS                           TIME =   2920.80
      VARY VARIABLES:  0.55556    

      UOS BLOCK B3       MODEL: RSTOIC                                            TIME =   2920.80
      KODE = 2  NTRIAL =   1  T = 353.1500  P =  131722.      V = 0.892669      Q =-2.162251E+06

      UOS BLOCK B8       MODEL: RSTOIC                                            TIME =   2920.80
      KODE = 2  NTRIAL =   1  T = 353.1500  P =  131722.      V = 0.890073      Q = -98420.8    

 SENSITIVITY BLOCK S-1      ROW    17 (BASE CASE) EVALUATION BEGINS               TIME =   2920.80

    SET IFINAL TO   1
      VARY VARIABLES:  0.41667    

      UOS BLOCK B3       MODEL: RSTOIC                                            TIME =   2920.80
      KODE = 2  NTRIAL =   1  T = 353.1500  P =  131722.      V = 0.897709      Q =-2.434855E+06

      UOS BLOCK B8       MODEL: RSTOIC                                            TIME =   2920.80
      KODE = 2  NTRIAL =   1  T = 353.1500  P =  131722.      V = 0.895180      Q = -97114.2    

    SET IFINAL TO   0

  *   WARNING WHILE EXECUTING SENSITIVITY BLOCK: "S-1"         (SNSTVI.5)       
      SOME ROWS COMPLETED WITH WARNINGS.                                        

      UOS BLOCK SEP      MODEL: SEP                                               TIME =   2920.80
      ---FLASH OUTLET STREAM H2SO4   :
      KODE = 2  NTRIAL =   1  T = 353.1500  P =  131722.      V =  0.00000      Q =  0.00000    
      ---FLASH OUTLET STREAM OTHERS  :
      KODE = 2  NTRIAL =   1  T = 353.1500  P =  131722.      V =  1.00000      Q =  0.00000    


*** INPUT SPECIFICATION MESSAGES ***

 THE FOLLOWING PARAGRAPH(S) WERE DELETED:

 DELETE
   SENSITIVITY  "S-1     "

 PDF updated                                                                      TIME =   3046.39
 THIS COPY OF ASPEN PLUS LICENSED TO INDIAN INSTITUTE OF TECH        
 
 
 *** FLOWSHEET ANALYSIS MESSAGES ***

      COMPUTATION ORDER FOR THE FLOWSHEET IS:
      B2 REACTOR1 B4 B5 B9 B6 B10 B7 B12 B3 B8 SEP 


Calculations begin                                                              time   3046.40

<reset scope>

 Report Writer entered                                                            Time =   3677.90

 Results generated                                                                Time =   3677.91

 Report Writer entered                                                            Time =   3679.76

 Results generated                                                                Time =   3679.77

RUN SAVED



 *** SUMMARY OF ERRORS ***

                  PHYSICAL
                  PROPERTY  SYSTEM  SIMULATION
 TERMINAL ERRORS      0        0         0
   SEVERE ERRORS      0        0         0
          ERRORS      0        0         0
        WARNINGS      0        0        91
